$ Spice netlist generated by v2lvs
$ v2021.1_33.19    Mon Mar 1 16:09:52 PST 2021

.INCLUDE "/proj/cad/library/asap7/asap7sc7p5t_27/CDL/LVS/asap7sc7p5t_27_L.cdl"
.INCLUDE "/proj/cad/library/asap7/asap7sc7p5t_27/CDL/LVS/asap7sc7p5t_27_R.cdl"
.INCLUDE "/proj/cad/library/asap7/asap7sc7p5t_27/CDL/LVS/asap7sc7p5t_27_SL.cdl"
.INCLUDE "/proj/cad/library/asap7/asap7sc7p5t_27/CDL/LVS/asap7sc7p5t_27_SRAM.cdl"
.INCLUDE “/home/013/o/om/oma190007/cad/msdap_new/SRAM.cdl"

*.BUSDELIMITER [ 

.SUBCKT CO_MEM write_enable read_enable Sclk Frame Write_Address[8] 
+ Write_Address[7] Write_Address[6] Write_Address[5] Write_Address[4] 
+ Write_Address[3] Write_Address[2] Write_Address[1] Write_Address[0] 
+ Read_Address[8] Read_Address[7] Read_Address[6] Read_Address[5] 
+ Read_Address[4] Read_Address[3] Read_Address[2] Read_Address[1] 
+ Read_Address[0] data_in[15] data_in[14] data_in[13] data_in[12] data_in[11] 
+ data_in[10] data_in[9] data_in[8] data_in[7] data_in[6] data_in[5] data_in[4] 
+ data_in[3] data_in[2] data_in[1] data_in[0] Coeff[15] Coeff[14] Coeff[13] 
+ Coeff[12] Coeff[11] Coeff[10] Coeff[9] Coeff[8] Coeff[7] Coeff[6] Coeff[5] 
+ Coeff[4] Coeff[3] Coeff[2] Coeff[1] Coeff[0] 
*.CONNECT Coeff[9] VSS
*.CONNECT Coeff[10] VSS
*.CONNECT Coeff[11] VSS
*.CONNECT Coeff[12] VSS
*.CONNECT Coeff[13] VSS
*.CONNECT Coeff[14] VSS
*.CONNECT Coeff[15] VSS
Xmem_0_0 SRAM1RW128x12 $PINS CE=Sclk WEB=mem_WEB OEB=mem_OEB CSB=mem_0_CSB 
+ A[6]=RW0_addr[6] A[5]=RW0_addr[5] A[4]=RW0_addr[4] A[3]=RW0_addr[3] 
+ A[2]=RW0_addr[2] A[1]=RW0_addr[1] A[0]=RW0_addr[0] I[11]=VSS I[10]=VSS I[9]=VSS 
+ I[8]=data_in[8] I[7]=data_in[7] I[6]=data_in[6] I[5]=data_in[5] I[4]=data_in[4] 
+ I[3]=data_in[3] I[2]=data_in[2] I[1]=data_in[1] I[0]=data_in[0] 
+ O[11]=mem_0_O[11] O[10]=mem_0_O[10] O[9]=mem_0_O[9] O[8]=mem_0_O[8] 
+ O[7]=mem_0_O[7] O[6]=mem_0_O[6] O[5]=mem_0_O[5] O[4]=mem_0_O[4] O[3]=mem_0_O[3] 
+ O[2]=mem_0_O[2] O[1]=mem_0_O[1] O[0]=mem_0_O[0] 
Xmem_0_1 SRAM1RW128x12 $PINS CE=Sclk WEB=mem_WEB OEB=mem_OEB CSB=mem_1_CSB 
+ A[6]=RW0_addr[6] A[5]=RW0_addr[5] A[4]=RW0_addr[4] A[3]=RW0_addr[3] 
+ A[2]=RW0_addr[2] A[1]=RW0_addr[1] A[0]=RW0_addr[0] I[11]=VSS I[10]=VSS I[9]=VSS 
+ I[8]=data_in[8] I[7]=data_in[7] I[6]=data_in[6] I[5]=data_in[5] I[4]=data_in[4] 
+ I[3]=data_in[3] I[2]=data_in[2] I[1]=data_in[1] I[0]=data_in[0] 
+ O[11]=mem_1_O[11] O[10]=mem_1_O[10] O[9]=mem_1_O[9] O[8]=mem_1_O[8] 
+ O[7]=mem_1_O[7] O[6]=mem_1_O[6] O[5]=mem_1_O[5] O[4]=mem_1_O[4] O[3]=mem_1_O[3] 
+ O[2]=mem_1_O[2] O[1]=mem_1_O[1] O[0]=mem_1_O[0] 
Xmem_0_2 SRAM1RW128x12 $PINS CE=Sclk WEB=mem_WEB OEB=mem_OEB CSB=mem_2_CSB 
+ A[6]=RW0_addr[6] A[5]=RW0_addr[5] A[4]=RW0_addr[4] A[3]=RW0_addr[3] 
+ A[2]=RW0_addr[2] A[1]=RW0_addr[1] A[0]=RW0_addr[0] I[11]=VSS I[10]=VSS I[9]=VSS 
+ I[8]=data_in[8] I[7]=data_in[7] I[6]=data_in[6] I[5]=data_in[5] I[4]=data_in[4] 
+ I[3]=data_in[3] I[2]=data_in[2] I[1]=data_in[1] I[0]=data_in[0] 
+ O[11]=mem_2_O[11] O[10]=mem_2_O[10] O[9]=mem_2_O[9] O[8]=mem_2_O[8] 
+ O[7]=mem_2_O[7] O[6]=mem_2_O[6] O[5]=mem_2_O[5] O[4]=mem_2_O[4] O[3]=mem_2_O[3] 
+ O[2]=mem_2_O[2] O[1]=mem_2_O[1] O[0]=mem_2_O[0] 
Xmem_0_3 SRAM1RW128x12 $PINS CE=Sclk WEB=mem_WEB OEB=mem_OEB CSB=mem_3_CSB 
+ A[6]=RW0_addr[6] A[5]=RW0_addr[5] A[4]=RW0_addr[4] A[3]=RW0_addr[3] 
+ A[2]=RW0_addr[2] A[1]=RW0_addr[1] A[0]=RW0_addr[0] I[11]=VSS I[10]=VSS I[9]=VSS 
+ I[8]=data_in[8] I[7]=data_in[7] I[6]=data_in[6] I[5]=data_in[5] I[4]=data_in[4] 
+ I[3]=data_in[3] I[2]=data_in[2] I[1]=data_in[1] I[0]=data_in[0] 
+ O[11]=mem_3_O[11] O[10]=mem_3_O[10] O[9]=mem_3_O[9] O[8]=mem_3_O[8] 
+ O[7]=mem_3_O[7] O[6]=mem_3_O[6] O[5]=mem_3_O[5] O[4]=mem_3_O[4] O[3]=mem_3_O[3] 
+ O[2]=mem_3_O[2] O[1]=mem_3_O[1] O[0]=mem_3_O[0] 
XRW0_rdata_reg[5] DLLx1_ASAP7_75t_SL $PINS CLK=mem_OEB D=n_38 Q=Coeff[5] 
XRW0_rdata_reg[7] DLLx1_ASAP7_75t_SL $PINS CLK=mem_OEB D=n_32 Q=Coeff[7] 
XRW0_rdata_reg[8] DLLx1_ASAP7_75t_SL $PINS CLK=mem_OEB D=n_33 Q=Coeff[8] 
XRW0_rdata_reg[1] DLLx1_ASAP7_75t_SL $PINS CLK=mem_OEB D=n_31 Q=Coeff[1] 
XRW0_rdata_reg[6] DLLx1_ASAP7_75t_SL $PINS CLK=mem_OEB D=n_35 Q=Coeff[6] 
XRW0_rdata_reg[4] DLLx1_ASAP7_75t_SL $PINS CLK=mem_OEB D=n_37 Q=Coeff[4] 
XRW0_rdata_reg[0] DLLx1_ASAP7_75t_SL $PINS CLK=mem_OEB D=n_34 Q=Coeff[0] 
XRW0_rdata_reg[3] DLLx1_ASAP7_75t_SL $PINS CLK=mem_OEB D=n_36 Q=Coeff[3] 
XRW0_rdata_reg[2] DLLx1_ASAP7_75t_SL $PINS CLK=mem_OEB D=n_30 Q=Coeff[2] 
Xg682__2398 NAND2xp33_ASAP7_75t_SL $PINS A=n_23 B=n_24 Y=n_38 
Xg683__5107 NAND2xp33_ASAP7_75t_SL $PINS A=n_25 B=n_26 Y=n_37 
Xg684__6260 NAND2xp33_ASAP7_75t_SL $PINS A=n_27 B=n_28 Y=n_36 
Xg685__4319 NAND2xp33_ASAP7_75t_SL $PINS A=n_29 B=n_22 Y=n_35 
Xg686__8428 NAND2xp33_ASAP7_75t_SL $PINS A=n_15 B=n_16 Y=n_34 
Xg687__5526 NAND2xp33_ASAP7_75t_SL $PINS A=n_17 B=n_18 Y=n_33 
Xg688__6783 NAND2xp33_ASAP7_75t_SL $PINS A=n_19 B=n_12 Y=n_32 
Xg689__3680 NAND2xp33_ASAP7_75t_SL $PINS A=n_13 B=n_14 Y=n_31 
Xg690__1617 NAND2xp33_ASAP7_75t_SL $PINS A=n_21 B=n_20 Y=n_30 
Xg691__2802 AOI22xp33_ASAP7_75t_SL $PINS A1=mem_0_O[6] A2=n_8 B1=n_10 
+ B2=mem_1_O[6] Y=n_29 
Xg692__1705 AOI22xp33_ASAP7_75t_SL $PINS A1=mem_2_O[3] A2=n_11 B1=n_9 
+ B2=mem_3_O[3] Y=n_28 
Xg693__5122 AOI22xp33_ASAP7_75t_SL $PINS A1=mem_0_O[3] A2=n_8 B1=n_10 
+ B2=mem_1_O[3] Y=n_27 
Xg694__8246 AOI22xp33_ASAP7_75t_SL $PINS A1=mem_2_O[4] A2=n_11 B1=n_9 
+ B2=mem_3_O[4] Y=n_26 
Xg695__7098 AOI22xp33_ASAP7_75t_SL $PINS A1=mem_0_O[4] A2=n_8 B1=n_10 
+ B2=mem_1_O[4] Y=n_25 
Xg696__6131 AOI22xp33_ASAP7_75t_SL $PINS A1=mem_2_O[5] A2=n_11 B1=n_9 
+ B2=mem_3_O[5] Y=n_24 
Xg697__1881 AOI22xp33_ASAP7_75t_SL $PINS A1=mem_0_O[5] A2=n_8 B1=n_10 
+ B2=mem_1_O[5] Y=n_23 
Xg698__5115 AOI22xp33_ASAP7_75t_SL $PINS A1=mem_2_O[6] A2=n_11 B1=n_9 
+ B2=mem_3_O[6] Y=n_22 
Xg699__7482 AOI22xp33_ASAP7_75t_SL $PINS A1=mem_0_O[2] A2=n_8 B1=n_10 
+ B2=mem_1_O[2] Y=n_21 
Xg700__4733 AOI22xp33_ASAP7_75t_SL $PINS A1=mem_2_O[2] A2=n_11 B1=n_9 
+ B2=mem_3_O[2] Y=n_20 
Xg701__6161 AOI22xp33_ASAP7_75t_SL $PINS A1=mem_0_O[7] A2=n_8 B1=n_10 
+ B2=mem_1_O[7] Y=n_19 
Xg702__9315 AOI22xp33_ASAP7_75t_SL $PINS A1=mem_2_O[8] A2=n_11 B1=n_9 
+ B2=mem_3_O[8] Y=n_18 
Xg703__9945 AOI22xp33_ASAP7_75t_SL $PINS A1=mem_0_O[8] A2=n_8 B1=n_10 
+ B2=mem_1_O[8] Y=n_17 
Xg704__2883 AOI22xp33_ASAP7_75t_SL $PINS A1=mem_2_O[0] A2=n_11 B1=n_9 
+ B2=mem_3_O[0] Y=n_16 
Xg705__2346 AOI22xp33_ASAP7_75t_SL $PINS A1=mem_0_O[0] A2=n_8 B1=n_10 
+ B2=mem_1_O[0] Y=n_15 
Xg706__1666 AOI22xp33_ASAP7_75t_SL $PINS A1=mem_2_O[1] A2=n_11 B1=n_9 
+ B2=mem_3_O[1] Y=n_14 
Xg707__7410 AOI22xp33_ASAP7_75t_SL $PINS A1=mem_0_O[1] A2=n_8 B1=n_10 
+ B2=mem_1_O[1] Y=n_13 
Xg708__6417 AOI22xp33_ASAP7_75t_SL $PINS A1=mem_2_O[7] A2=n_11 B1=n_9 
+ B2=mem_3_O[7] Y=n_12 
Xg709__5477 NOR2xp33_ASAP7_75t_SL $PINS A=cs_vec[0] B=n_6 Y=n_11 
Xg710__2398 NOR2xp33_ASAP7_75t_SL $PINS A=cs_vec[1] B=n_7 Y=n_10 
Xg711__5107 NOR2xp33_ASAP7_75t_SL $PINS A=n_7 B=n_6 Y=n_9 
Xg712__6260 NOR2xp33_ASAP7_75t_SL $PINS A=cs_vec[0] B=cs_vec[1] Y=n_8 
Xg713 INVx1_ASAP7_75t_SL $PINS A=cs_vec[0] Y=n_7 
Xg714 INVx1_ASAP7_75t_SL $PINS A=cs_vec[1] Y=n_6 
Xg715__4319 OR2x2_ASAP7_75t_SRAM $PINS A=n_3 B=n_5 Y=mem_3_CSB 
Xcs_vec_reg[0] DFFHQNx1_ASAP7_75t_L $PINS CLK=Sclk D=n_3 QN=cs_vec[0] 
Xcs_vec_reg[1] DFFHQNx1_ASAP7_75t_L $PINS CLK=Sclk D=n_5 QN=cs_vec[1] 
Xg718__8428 NAND2xp33_ASAP7_75t_SL $PINS A=n_5 B=n_3 Y=mem_0_CSB 
Xg719__5526 NAND2xp33_ASAP7_75t_SL $PINS A=n_2 B=n_5 Y=mem_1_CSB 
Xg720__6783 NAND2xp33_ASAP7_75t_SL $PINS A=n_4 B=n_3 Y=mem_2_CSB 
Xg721 INVxp67_ASAP7_75t_SL $PINS A=n_5 Y=n_4 
Xg722__3680 AO22x2_ASAP7_75t_SL $PINS A1=Read_Address[0] A2=n_0 
+ B1=Write_Address[0] B2=write_enable Y=RW0_addr[0] 
Xg723__1617 AO22x2_ASAP7_75t_SL $PINS A1=Read_Address[4] A2=n_0 
+ B1=Write_Address[4] B2=write_enable Y=RW0_addr[4] 
Xg724__2802 AO22x2_ASAP7_75t_SL $PINS A1=Read_Address[5] A2=n_0 
+ B1=Write_Address[5] B2=write_enable Y=RW0_addr[5] 
Xg725__1705 AOI22xp5_ASAP7_75t_SL $PINS A1=Read_Address[8] A2=n_0 
+ B1=Write_Address[8] B2=write_enable Y=n_5 
Xg726__5122 OA21x2_ASAP7_75t_L $PINS A1=Frame A2=n_0 B=n_1 Y=mem_OEB 
Xg727 INVxp67_ASAP7_75t_SL $PINS A=n_3 Y=n_2 
Xg728__8246 AO22x2_ASAP7_75t_SL $PINS A1=Read_Address[3] A2=n_0 
+ B1=Write_Address[3] B2=write_enable Y=RW0_addr[3] 
Xg729__7098 AO22x2_ASAP7_75t_SL $PINS A1=Read_Address[6] A2=n_0 
+ B1=Write_Address[6] B2=write_enable Y=RW0_addr[6] 
Xg730__6131 AO22x2_ASAP7_75t_SL $PINS A1=Read_Address[1] A2=n_0 
+ B1=Write_Address[1] B2=write_enable Y=RW0_addr[1] 
Xg731__1881 AO22x2_ASAP7_75t_SL $PINS A1=Read_Address[2] A2=n_0 
+ B1=Write_Address[2] B2=write_enable Y=RW0_addr[2] 
Xg732__5115 AOI22xp5_ASAP7_75t_SL $PINS A1=Read_Address[7] A2=n_0 
+ B1=Write_Address[7] B2=write_enable Y=n_3 
Xg733__7482 NAND2xp33_ASAP7_75t_SL $PINS A=read_enable B=n_0 Y=n_1 
Xg734__4733 NAND2x2_ASAP7_75t_SRAM $PINS A=write_enable B=Frame Y=mem_WEB 
Xg735 INVx1_ASAP7_75t_SL $PINS A=write_enable Y=n_0 
.ENDS

.SUBCKT CO_MEM_1 write_enable read_enable Sclk Frame Write_Address[8] 
+ Write_Address[7] Write_Address[6] Write_Address[5] Write_Address[4] 
+ Write_Address[3] Write_Address[2] Write_Address[1] Write_Address[0] 
+ Read_Address[8] Read_Address[7] Read_Address[6] Read_Address[5] 
+ Read_Address[4] Read_Address[3] Read_Address[2] Read_Address[1] 
+ Read_Address[0] data_in[15] data_in[14] data_in[13] data_in[12] data_in[11] 
+ data_in[10] data_in[9] data_in[8] data_in[7] data_in[6] data_in[5] data_in[4] 
+ data_in[3] data_in[2] data_in[1] data_in[0] Coeff[15] Coeff[14] Coeff[13] 
+ Coeff[12] Coeff[11] Coeff[10] Coeff[9] Coeff[8] Coeff[7] Coeff[6] Coeff[5] 
+ Coeff[4] Coeff[3] Coeff[2] Coeff[1] Coeff[0] 
*.CONNECT Coeff[9] VSS
*.CONNECT Coeff[10] VSS
*.CONNECT Coeff[11] VSS
*.CONNECT Coeff[12] VSS
*.CONNECT Coeff[13] VSS
*.CONNECT Coeff[14] VSS
*.CONNECT Coeff[15] VSS
Xmem_0_0 SRAM1RW128x12 $PINS CE=Sclk WEB=mem_WEB OEB=mem_OEB CSB=mem_0_CSB 
+ A[6]=RW0_addr[6] A[5]=RW0_addr[5] A[4]=RW0_addr[4] A[3]=RW0_addr[3] 
+ A[2]=RW0_addr[2] A[1]=RW0_addr[1] A[0]=RW0_addr[0] I[11]=VSS I[10]=VSS I[9]=VSS 
+ I[8]=data_in[8] I[7]=data_in[7] I[6]=data_in[6] I[5]=data_in[5] I[4]=data_in[4] 
+ I[3]=data_in[3] I[2]=data_in[2] I[1]=data_in[1] I[0]=data_in[0] 
+ O[11]=mem_0_O[11] O[10]=mem_0_O[10] O[9]=mem_0_O[9] O[8]=mem_0_O[8] 
+ O[7]=mem_0_O[7] O[6]=mem_0_O[6] O[5]=mem_0_O[5] O[4]=mem_0_O[4] O[3]=mem_0_O[3] 
+ O[2]=mem_0_O[2] O[1]=mem_0_O[1] O[0]=mem_0_O[0] 
Xmem_0_1 SRAM1RW128x12 $PINS CE=Sclk WEB=mem_WEB OEB=mem_OEB CSB=mem_1_CSB 
+ A[6]=RW0_addr[6] A[5]=RW0_addr[5] A[4]=RW0_addr[4] A[3]=RW0_addr[3] 
+ A[2]=RW0_addr[2] A[1]=RW0_addr[1] A[0]=RW0_addr[0] I[11]=VSS I[10]=VSS I[9]=VSS 
+ I[8]=data_in[8] I[7]=data_in[7] I[6]=data_in[6] I[5]=data_in[5] I[4]=data_in[4] 
+ I[3]=data_in[3] I[2]=data_in[2] I[1]=data_in[1] I[0]=data_in[0] 
+ O[11]=mem_1_O[11] O[10]=mem_1_O[10] O[9]=mem_1_O[9] O[8]=mem_1_O[8] 
+ O[7]=mem_1_O[7] O[6]=mem_1_O[6] O[5]=mem_1_O[5] O[4]=mem_1_O[4] O[3]=mem_1_O[3] 
+ O[2]=mem_1_O[2] O[1]=mem_1_O[1] O[0]=mem_1_O[0] 
Xmem_0_2 SRAM1RW128x12 $PINS CE=Sclk WEB=mem_WEB OEB=mem_OEB CSB=mem_2_CSB 
+ A[6]=RW0_addr[6] A[5]=RW0_addr[5] A[4]=RW0_addr[4] A[3]=RW0_addr[3] 
+ A[2]=RW0_addr[2] A[1]=RW0_addr[1] A[0]=RW0_addr[0] I[11]=VSS I[10]=VSS I[9]=VSS 
+ I[8]=data_in[8] I[7]=data_in[7] I[6]=data_in[6] I[5]=data_in[5] I[4]=data_in[4] 
+ I[3]=data_in[3] I[2]=data_in[2] I[1]=data_in[1] I[0]=data_in[0] 
+ O[11]=mem_2_O[11] O[10]=mem_2_O[10] O[9]=mem_2_O[9] O[8]=mem_2_O[8] 
+ O[7]=mem_2_O[7] O[6]=mem_2_O[6] O[5]=mem_2_O[5] O[4]=mem_2_O[4] O[3]=mem_2_O[3] 
+ O[2]=mem_2_O[2] O[1]=mem_2_O[1] O[0]=mem_2_O[0] 
Xmem_0_3 SRAM1RW128x12 $PINS CE=Sclk WEB=mem_WEB OEB=mem_OEB CSB=mem_3_CSB 
+ A[6]=RW0_addr[6] A[5]=RW0_addr[5] A[4]=RW0_addr[4] A[3]=RW0_addr[3] 
+ A[2]=RW0_addr[2] A[1]=RW0_addr[1] A[0]=RW0_addr[0] I[11]=VSS I[10]=VSS I[9]=VSS 
+ I[8]=data_in[8] I[7]=data_in[7] I[6]=data_in[6] I[5]=data_in[5] I[4]=data_in[4] 
+ I[3]=data_in[3] I[2]=data_in[2] I[1]=data_in[1] I[0]=data_in[0] 
+ O[11]=mem_3_O[11] O[10]=mem_3_O[10] O[9]=mem_3_O[9] O[8]=mem_3_O[8] 
+ O[7]=mem_3_O[7] O[6]=mem_3_O[6] O[5]=mem_3_O[5] O[4]=mem_3_O[4] O[3]=mem_3_O[3] 
+ O[2]=mem_3_O[2] O[1]=mem_3_O[1] O[0]=mem_3_O[0] 
XRW0_rdata_reg[5] DLLx1_ASAP7_75t_SL $PINS CLK=mem_OEB D=n_38 Q=Coeff[5] 
XRW0_rdata_reg[7] DLLx1_ASAP7_75t_SL $PINS CLK=mem_OEB D=n_32 Q=Coeff[7] 
XRW0_rdata_reg[8] DLLx1_ASAP7_75t_SL $PINS CLK=mem_OEB D=n_33 Q=Coeff[8] 
XRW0_rdata_reg[1] DLLx1_ASAP7_75t_SL $PINS CLK=mem_OEB D=n_31 Q=Coeff[1] 
XRW0_rdata_reg[6] DLLx1_ASAP7_75t_SL $PINS CLK=mem_OEB D=n_35 Q=Coeff[6] 
XRW0_rdata_reg[4] DLLx1_ASAP7_75t_SL $PINS CLK=mem_OEB D=n_37 Q=Coeff[4] 
XRW0_rdata_reg[0] DLLx1_ASAP7_75t_SL $PINS CLK=mem_OEB D=n_34 Q=Coeff[0] 
XRW0_rdata_reg[3] DLLx1_ASAP7_75t_SL $PINS CLK=mem_OEB D=n_36 Q=Coeff[3] 
XRW0_rdata_reg[2] DLLx1_ASAP7_75t_SL $PINS CLK=mem_OEB D=n_30 Q=Coeff[2] 
Xg682__6161 NAND2xp33_ASAP7_75t_SL $PINS A=n_23 B=n_24 Y=n_38 
Xg683__9315 NAND2xp33_ASAP7_75t_SL $PINS A=n_25 B=n_26 Y=n_37 
Xg684__9945 NAND2xp33_ASAP7_75t_SL $PINS A=n_27 B=n_28 Y=n_36 
Xg685__2883 NAND2xp33_ASAP7_75t_SL $PINS A=n_29 B=n_22 Y=n_35 
Xg686__2346 NAND2xp33_ASAP7_75t_SL $PINS A=n_15 B=n_16 Y=n_34 
Xg687__1666 NAND2xp33_ASAP7_75t_SL $PINS A=n_17 B=n_18 Y=n_33 
Xg688__7410 NAND2xp33_ASAP7_75t_SL $PINS A=n_19 B=n_12 Y=n_32 
Xg689__6417 NAND2xp33_ASAP7_75t_SL $PINS A=n_13 B=n_14 Y=n_31 
Xg690__5477 NAND2xp33_ASAP7_75t_SL $PINS A=n_21 B=n_20 Y=n_30 
Xg691__2398 AOI22xp33_ASAP7_75t_SL $PINS A1=mem_0_O[6] A2=n_8 B1=n_10 
+ B2=mem_1_O[6] Y=n_29 
Xg692__5107 AOI22xp33_ASAP7_75t_SL $PINS A1=mem_2_O[3] A2=n_11 B1=n_9 
+ B2=mem_3_O[3] Y=n_28 
Xg693__6260 AOI22xp33_ASAP7_75t_SL $PINS A1=mem_0_O[3] A2=n_8 B1=n_10 
+ B2=mem_1_O[3] Y=n_27 
Xg694__4319 AOI22xp33_ASAP7_75t_SL $PINS A1=mem_2_O[4] A2=n_11 B1=n_9 
+ B2=mem_3_O[4] Y=n_26 
Xg695__8428 AOI22xp33_ASAP7_75t_SL $PINS A1=mem_0_O[4] A2=n_8 B1=n_10 
+ B2=mem_1_O[4] Y=n_25 
Xg696__5526 AOI22xp33_ASAP7_75t_SL $PINS A1=mem_2_O[5] A2=n_11 B1=n_9 
+ B2=mem_3_O[5] Y=n_24 
Xg697__6783 AOI22xp33_ASAP7_75t_SL $PINS A1=mem_0_O[5] A2=n_8 B1=n_10 
+ B2=mem_1_O[5] Y=n_23 
Xg698__3680 AOI22xp33_ASAP7_75t_SL $PINS A1=mem_2_O[6] A2=n_11 B1=n_9 
+ B2=mem_3_O[6] Y=n_22 
Xg699__1617 AOI22xp33_ASAP7_75t_SL $PINS A1=mem_0_O[2] A2=n_8 B1=n_10 
+ B2=mem_1_O[2] Y=n_21 
Xg700__2802 AOI22xp33_ASAP7_75t_SL $PINS A1=mem_2_O[2] A2=n_11 B1=n_9 
+ B2=mem_3_O[2] Y=n_20 
Xg701__1705 AOI22xp33_ASAP7_75t_SL $PINS A1=mem_0_O[7] A2=n_8 B1=n_10 
+ B2=mem_1_O[7] Y=n_19 
Xg702__5122 AOI22xp33_ASAP7_75t_SL $PINS A1=mem_2_O[8] A2=n_11 B1=n_9 
+ B2=mem_3_O[8] Y=n_18 
Xg703__8246 AOI22xp33_ASAP7_75t_SL $PINS A1=mem_0_O[8] A2=n_8 B1=n_10 
+ B2=mem_1_O[8] Y=n_17 
Xg704__7098 AOI22xp33_ASAP7_75t_SL $PINS A1=mem_2_O[0] A2=n_11 B1=n_9 
+ B2=mem_3_O[0] Y=n_16 
Xg705__6131 AOI22xp33_ASAP7_75t_SL $PINS A1=mem_0_O[0] A2=n_8 B1=n_10 
+ B2=mem_1_O[0] Y=n_15 
Xg706__1881 AOI22xp33_ASAP7_75t_SL $PINS A1=mem_2_O[1] A2=n_11 B1=n_9 
+ B2=mem_3_O[1] Y=n_14 
Xg707__5115 AOI22xp33_ASAP7_75t_SL $PINS A1=mem_0_O[1] A2=n_8 B1=n_10 
+ B2=mem_1_O[1] Y=n_13 
Xg708__7482 AOI22xp33_ASAP7_75t_SL $PINS A1=mem_2_O[7] A2=n_11 B1=n_9 
+ B2=mem_3_O[7] Y=n_12 
Xg709__4733 NOR2xp33_ASAP7_75t_SL $PINS A=cs_vec[0] B=n_6 Y=n_11 
Xg710__6161 NOR2xp33_ASAP7_75t_SL $PINS A=cs_vec[1] B=n_7 Y=n_10 
Xg711__9315 NOR2xp33_ASAP7_75t_SL $PINS A=n_7 B=n_6 Y=n_9 
Xg712__9945 NOR2xp33_ASAP7_75t_SL $PINS A=cs_vec[0] B=cs_vec[1] Y=n_8 
Xg713 INVx1_ASAP7_75t_SL $PINS A=cs_vec[0] Y=n_7 
Xg714 INVx1_ASAP7_75t_SL $PINS A=cs_vec[1] Y=n_6 
Xg715__2883 OR2x2_ASAP7_75t_SRAM $PINS A=n_3 B=n_5 Y=mem_3_CSB 
Xcs_vec_reg[0] DFFHQNx1_ASAP7_75t_L $PINS CLK=Sclk D=n_3 QN=cs_vec[0] 
Xcs_vec_reg[1] DFFHQNx1_ASAP7_75t_L $PINS CLK=Sclk D=n_5 QN=cs_vec[1] 
Xg718__2346 NAND2xp33_ASAP7_75t_SL $PINS A=n_5 B=n_3 Y=mem_0_CSB 
Xg719__1666 NAND2xp33_ASAP7_75t_SL $PINS A=n_2 B=n_5 Y=mem_1_CSB 
Xg720__7410 NAND2xp33_ASAP7_75t_SL $PINS A=n_4 B=n_3 Y=mem_2_CSB 
Xg721 INVxp67_ASAP7_75t_SL $PINS A=n_5 Y=n_4 
Xg722__6417 AO22x2_ASAP7_75t_SL $PINS A1=Read_Address[0] A2=n_0 
+ B1=Write_Address[0] B2=write_enable Y=RW0_addr[0] 
Xg723__5477 AO22x2_ASAP7_75t_SL $PINS A1=Read_Address[4] A2=n_0 
+ B1=Write_Address[4] B2=write_enable Y=RW0_addr[4] 
Xg724__2398 AO22x2_ASAP7_75t_SL $PINS A1=Read_Address[5] A2=n_0 
+ B1=Write_Address[5] B2=write_enable Y=RW0_addr[5] 
Xg725__5107 AOI22xp5_ASAP7_75t_SL $PINS A1=Read_Address[8] A2=n_0 
+ B1=Write_Address[8] B2=write_enable Y=n_5 
Xg726__6260 OA21x2_ASAP7_75t_L $PINS A1=Frame A2=n_0 B=n_1 Y=mem_OEB 
Xg727 INVxp67_ASAP7_75t_SL $PINS A=n_3 Y=n_2 
Xg728__4319 AO22x2_ASAP7_75t_SL $PINS A1=Read_Address[3] A2=n_0 
+ B1=Write_Address[3] B2=write_enable Y=RW0_addr[3] 
Xg729__8428 AO22x2_ASAP7_75t_SL $PINS A1=Read_Address[6] A2=n_0 
+ B1=Write_Address[6] B2=write_enable Y=RW0_addr[6] 
Xg730__5526 AO22x2_ASAP7_75t_SL $PINS A1=Read_Address[1] A2=n_0 
+ B1=Write_Address[1] B2=write_enable Y=RW0_addr[1] 
Xg731__6783 AO22x2_ASAP7_75t_SL $PINS A1=Read_Address[2] A2=n_0 
+ B1=Write_Address[2] B2=write_enable Y=RW0_addr[2] 
Xg732__3680 AOI22xp5_ASAP7_75t_SL $PINS A1=Read_Address[7] A2=n_0 
+ B1=Write_Address[7] B2=write_enable Y=n_3 
Xg733__1617 NAND2xp33_ASAP7_75t_SL $PINS A=read_enable B=n_0 Y=n_1 
Xg734__2802 NAND2x2_ASAP7_75t_SRAM $PINS A=write_enable B=Frame Y=mem_WEB 
Xg735 INVx1_ASAP7_75t_SL $PINS A=write_enable Y=n_0 
.ENDS

.SUBCKT DATA_MEM write_enable read_enable Sclk Frame input_ready 
+ Write_Address[7] Write_Address[6] Write_Address[5] Write_Address[4] 
+ Write_Address[3] Write_Address[2] Write_Address[1] Write_Address[0] 
+ Read_Address[7] Read_Address[6] Read_Address[5] Read_Address[4] 
+ Read_Address[3] Read_Address[2] Read_Address[1] Read_Address[0] data_in[15] 
+ data_in[14] data_in[13] data_in[12] data_in[11] data_in[10] data_in[9] 
+ data_in[8] data_in[7] data_in[6] data_in[5] data_in[4] data_in[3] data_in[2] 
+ data_in[1] data_in[0] data_stored[15] data_stored[14] data_stored[13] 
+ data_stored[12] data_stored[11] data_stored[10] data_stored[9] data_stored[8] 
+ data_stored[7] data_stored[6] data_stored[5] data_stored[4] data_stored[3] 
+ data_stored[2] data_stored[1] data_stored[0] allzeros 
Xmem_0_0 SRAM1RW256x8 $PINS CE=Sclk WEB=mem_0_0_WEB OEB=mem_0_0_OEB 
+ CSB=mem_0_0_CSB A[7]=RW0_addr[7] A[6]=RW0_addr[6] A[5]=RW0_addr[5] 
+ A[4]=RW0_addr[4] A[3]=RW0_addr[3] A[2]=RW0_addr[2] A[1]=RW0_addr[1] 
+ A[0]=RW0_addr[0] I[7]=data_in[7] I[6]=data_in[6] I[5]=data_in[5] 
+ I[4]=data_in[4] I[3]=data_in[3] I[2]=data_in[2] I[1]=data_in[1] I[0]=data_in[0] 
+ O[7]=mem_0_0_O[7] O[6]=mem_0_0_O[6] O[5]=mem_0_0_O[5] O[4]=mem_0_0_O[4] 
+ O[3]=mem_0_0_O[3] O[2]=mem_0_0_O[2] O[1]=mem_0_0_O[1] O[0]=mem_0_0_O[0] 
Xmem_0_1 SRAM1RW256x8 $PINS CE=Sclk WEB=mem_0_0_WEB OEB=mem_0_0_OEB 
+ CSB=mem_0_0_CSB A[7]=RW0_addr[7] A[6]=RW0_addr[6] A[5]=RW0_addr[5] 
+ A[4]=RW0_addr[4] A[3]=RW0_addr[3] A[2]=RW0_addr[2] A[1]=RW0_addr[1] 
+ A[0]=RW0_addr[0] I[7]=data_in[15] I[6]=data_in[14] I[5]=data_in[13] 
+ I[4]=data_in[12] I[3]=data_in[11] I[2]=data_in[10] I[1]=data_in[9] 
+ I[0]=data_in[8] O[7]=mem_0_1_O[7] O[6]=mem_0_1_O[6] O[5]=mem_0_1_O[5] 
+ O[4]=mem_0_1_O[4] O[3]=mem_0_1_O[3] O[2]=mem_0_1_O[2] O[1]=mem_0_1_O[1] 
+ O[0]=mem_0_1_O[0] 
Xcount_zero_reg[1] DFFHQNx1_ASAP7_75t_SL $PINS CLK=input_ready D=n_40 
+ QN=count_zero[1] 
Xcount_zero_reg[8] DFFHQNx1_ASAP7_75t_SL $PINS CLK=input_ready D=n_39 
+ QN=count_zero[8] 
Xcount_zero_reg[2] DFFHQNx1_ASAP7_75t_SL $PINS CLK=input_ready D=n_44 
+ QN=count_zero[2] 
Xcount_zero_reg[0] DFFHQNx1_ASAP7_75t_SL $PINS CLK=input_ready D=n_46 
+ QN=count_zero[0] 
Xcount_zero_reg[4] DFFHQNx1_ASAP7_75t_SL $PINS CLK=input_ready D=n_41 
+ QN=count_zero[4] 
Xcount_zero_reg[3] DFFHQNx1_ASAP7_75t_SL $PINS CLK=input_ready D=n_45 
+ QN=count_zero[3] 
Xcount_zero_reg[6] DFFHQNx1_ASAP7_75t_SL $PINS CLK=input_ready D=n_42 
+ QN=count_zero[6] 
Xcount_zero_reg[7] DFFHQNx1_ASAP7_75t_SL $PINS CLK=input_ready D=n_43 
+ QN=count_zero[7] 
Xg1584__1705 OR2x2_ASAP7_75t_SRAM $PINS A=n_36 B=count_zero[0] Y=n_46 
Xg1585__5122 NAND2xp33_ASAP7_75t_SL $PINS A=n_16 B=n_37 Y=n_45 
Xg1586__8246 NAND2xp33_ASAP7_75t_SL $PINS A=n_14 B=n_37 Y=n_44 
Xcount_zero_reg[5] DFFHQNx1_ASAP7_75t_SL $PINS CLK=input_ready D=n_38 
+ QN=count_zero[5] 
Xallzeros_reg DFFHQNx1_ASAP7_75t_SL $PINS CLK=input_ready D=n_35 QN=allzeros 
Xg1589__7098 NAND2xp33_ASAP7_75t_SL $PINS A=n_30 B=n_37 Y=n_43 
Xg1590__6131 NAND2xp33_ASAP7_75t_SL $PINS A=n_27 B=n_37 Y=n_42 
Xg1591__1881 NAND2xp33_ASAP7_75t_SL $PINS A=n_20 B=n_37 Y=n_41 
Xg1592__5115 NAND2xp33_ASAP7_75t_SL $PINS A=n_7 B=n_37 Y=n_40 
Xg1593__7482 AOI221xp5_ASAP7_75t_R $PINS A1=n_18 A2=n_31 B1=n_28 B2=n_21 C=n_34 
+ Y=n_39 
Xg1594__4733 AOI31xp33_ASAP7_75t_SL $PINS A1=n_18 A2=n_22 A3=n_24 B=n_34 Y=n_38 
Xcount_zero_reg[9] DFFHQNx1_ASAP7_75t_SL $PINS CLK=input_ready D=n_33 
+ QN=count_zero[9] 
Xg1596 INVx1_ASAP7_75t_SL $PINS A=n_37 Y=n_36 
Xg1597__6161 AOI21xp33_ASAP7_75t_SL $PINS A1=allzeros A2=n_18 B=n_34 Y=n_35 
Xg1598__9315 AOI21xp33_ASAP7_75t_SL $PINS A1=count_zero[8] A2=n_32 B=n_17 
+ Y=n_37 
Xg1599__9945 AND2x2_ASAP7_75t_R $PINS A=n_32 B=n_21 Y=n_34 
Xg1600__2883 AOI22xp33_ASAP7_75t_SL $PINS A1=n_29 A2=n_21 B1=count_zero[9] 
+ B2=n_18 Y=n_33 
Xg1601__2346 OA31x2_ASAP7_75t_SL $PINS A1=count_zero[6] A2=count_zero[7] 
+ A3=n_24 B1=count_zero[9] Y=n_32 
Xg1602__1666 NOR2xp33_ASAP7_75t_SL $PINS A=count_zero[8] B=n_28 Y=n_31 
Xg1603__7410 XNOR2xp5_ASAP7_75t_SRAM $PINS A=count_zero[7] B=n_25 Y=n_30 
Xg1604 INVx1_ASAP7_75t_SL $PINS A=n_28 Y=n_29 
Xg1605__6417 NAND2xp33_ASAP7_75t_SL $PINS A=count_zero[7] B=n_26 Y=n_28 
Xg1606__5477 XNOR2xp5_ASAP7_75t_SRAM $PINS A=count_zero[6] B=n_22 Y=n_27 
Xg1607 INVx1_ASAP7_75t_SL $PINS A=n_25 Y=n_26 
Xg1608__2398 NAND2xp33_ASAP7_75t_SL $PINS A=count_zero[6] B=n_23 Y=n_25 
Xg1609 INVx1_ASAP7_75t_SL $PINS A=n_22 Y=n_23 
Xg1610__5107 OR2x2_ASAP7_75t_SRAM $PINS A=n_19 B=count_zero[5] Y=n_24 
Xg1611__6260 NAND2xp33_ASAP7_75t_SL $PINS A=count_zero[5] B=n_19 Y=n_22 
Xg1612__4319 XNOR2xp5_ASAP7_75t_SRAM $PINS A=count_zero[4] B=n_15 Y=n_20 
Xg1613__8428 AND2x2_ASAP7_75t_R $PINS A=n_18 B=count_zero[8] Y=n_21 
Xg1614__5526 NOR2xp33_ASAP7_75t_SL $PINS A=n_4 B=n_15 Y=n_19 
Xg1615 INVx1_ASAP7_75t_SL $PINS A=n_17 Y=n_18 
Xg1616__6783 XNOR2xp5_ASAP7_75t_SRAM $PINS A=count_zero[3] B=n_12 Y=n_16 
Xg1617__3680 NAND4xp25_ASAP7_75t_R $PINS A=n_10 B=n_9 C=n_11 D=n_8 Y=n_17 
Xg1618__1617 NAND2xp33_ASAP7_75t_SL $PINS A=count_zero[3] B=n_13 Y=n_15 
Xg1619__2802 XNOR2xp5_ASAP7_75t_SRAM $PINS A=count_zero[2] B=n_5 Y=n_14 
Xg1620 INVx1_ASAP7_75t_SL $PINS A=n_12 Y=n_13 
Xg1621__1705 NOR4xp25_ASAP7_75t_R $PINS A=data_in[0] B=data_in[2] C=data_in[1] 
+ D=data_in[3] Y=n_11 
Xg1622__5122 NOR4xp25_ASAP7_75t_R $PINS A=data_in[12] B=data_in[15] 
+ C=data_in[14] D=data_in[13] Y=n_10 
Xg1623__8246 NAND2xp33_ASAP7_75t_SL $PINS A=count_zero[2] B=n_6 Y=n_12 
Xg1624__7098 NOR4xp25_ASAP7_75t_R $PINS A=data_in[4] B=data_in[7] C=data_in[6] 
+ D=data_in[5] Y=n_9 
Xg1625__6131 NOR4xp25_ASAP7_75t_R $PINS A=data_in[9] B=data_in[11] C=n_3 
+ D=data_in[10] Y=n_8 
Xg1626__1881 XOR2xp5_ASAP7_75t_R $PINS A=count_zero[1] B=count_zero[0] Y=n_7 
Xg1627 INVx1_ASAP7_75t_SL $PINS A=n_5 Y=n_6 
Xg1628__5115 NAND2xp33_ASAP7_75t_SL $PINS A=count_zero[1] B=count_zero[0] Y=n_5 
Xg1629 INVx1_ASAP7_75t_SL $PINS A=count_zero[4] Y=n_4 
Xdrc_bufs HB1xp67_ASAP7_75t_SL $PINS A=data_in[8] Y=n_3 
Xg1498__7482 AO22x1_ASAP7_75t_SL $PINS A1=Read_Address[6] A2=n_0 
+ B1=Write_Address[6] B2=write_enable Y=RW0_addr[6] 
Xg1499__4733 AO22x1_ASAP7_75t_SL $PINS A1=Read_Address[7] A2=n_0 
+ B1=Write_Address[7] B2=write_enable Y=RW0_addr[7] 
Xg1500__6161 OR2x2_ASAP7_75t_SRAM $PINS A=n_2 B=mem_0_0_CSB Y=mem_0_0_OEB 
Xg1501__9315 AO22x1_ASAP7_75t_SL $PINS A1=Read_Address[1] A2=n_0 
+ B1=Write_Address[1] B2=write_enable Y=RW0_addr[1] 
Xg1502__9945 AO22x1_ASAP7_75t_SL $PINS A1=Read_Address[4] A2=n_0 
+ B1=Write_Address[4] B2=write_enable Y=RW0_addr[4] 
Xg1503__2883 AO22x1_ASAP7_75t_SL $PINS A1=Read_Address[5] A2=n_0 
+ B1=Write_Address[5] B2=write_enable Y=RW0_addr[5] 
Xg1504__2346 AO22x1_ASAP7_75t_SL $PINS A1=Read_Address[0] A2=n_0 
+ B1=Write_Address[0] B2=write_enable Y=RW0_addr[0] 
Xg1505__1666 AO22x1_ASAP7_75t_SL $PINS A1=Read_Address[3] A2=n_0 
+ B1=Write_Address[3] B2=write_enable Y=RW0_addr[3] 
Xg1506__7410 AO22x1_ASAP7_75t_SL $PINS A1=Read_Address[2] A2=n_0 
+ B1=Write_Address[2] B2=write_enable Y=RW0_addr[2] 
Xg1507 INVx1_ASAP7_75t_L $PINS A=mem_0_0_WEB Y=n_2 
Xg1508__6417 AND2x2_ASAP7_75t_SL $PINS A=read_enable B=mem_0_0_O[6] 
+ Y=data_stored[6] 
Xg1509__5477 AND2x2_ASAP7_75t_SL $PINS A=read_enable B=mem_0_0_O[0] 
+ Y=data_stored[0] 
Xg1510__2398 AND2x2_ASAP7_75t_SL $PINS A=read_enable B=mem_0_1_O[0] 
+ Y=data_stored[8] 
Xg1511__5107 AND2x2_ASAP7_75t_SL $PINS A=read_enable B=mem_0_1_O[6] 
+ Y=data_stored[14] 
Xg1512__6260 AND2x2_ASAP7_75t_SL $PINS A=read_enable B=mem_0_0_O[7] 
+ Y=data_stored[7] 
Xg1513__4319 AND2x2_ASAP7_75t_SL $PINS A=read_enable B=mem_0_1_O[4] 
+ Y=data_stored[12] 
Xg1514__8428 AND2x2_ASAP7_75t_SL $PINS A=read_enable B=mem_0_1_O[7] 
+ Y=data_stored[15] 
Xg1515__5526 AND2x2_ASAP7_75t_SL $PINS A=n_1 B=n_0 Y=mem_0_0_CSB 
Xg1516__6783 NAND2x2_ASAP7_75t_SL $PINS A=Frame B=write_enable Y=mem_0_0_WEB 
Xg1517__3680 AND2x2_ASAP7_75t_SL $PINS A=read_enable B=mem_0_0_O[1] 
+ Y=data_stored[1] 
Xg1518__1617 AND2x2_ASAP7_75t_SL $PINS A=read_enable B=mem_0_0_O[5] 
+ Y=data_stored[5] 
Xg1519__2802 AND2x2_ASAP7_75t_SL $PINS A=read_enable B=mem_0_1_O[2] 
+ Y=data_stored[10] 
Xg1520__1705 AND2x2_ASAP7_75t_SL $PINS A=read_enable B=mem_0_0_O[4] 
+ Y=data_stored[4] 
Xg1521__5122 AND2x2_ASAP7_75t_SL $PINS A=read_enable B=mem_0_0_O[3] 
+ Y=data_stored[3] 
Xg1522__8246 AND2x2_ASAP7_75t_SL $PINS A=read_enable B=mem_0_1_O[5] 
+ Y=data_stored[13] 
Xg1523__7098 AND2x2_ASAP7_75t_SL $PINS A=read_enable B=mem_0_1_O[1] 
+ Y=data_stored[9] 
Xg1524__6131 AND2x2_ASAP7_75t_SL $PINS A=read_enable B=mem_0_0_O[2] 
+ Y=data_stored[2] 
Xg1525__1881 AND2x2_ASAP7_75t_SL $PINS A=read_enable B=mem_0_1_O[3] 
+ Y=data_stored[11] 
Xg1526 INVxp67_ASAP7_75t_SL $PINS A=read_enable Y=n_1 
Xg1527 INVx1_ASAP7_75t_SL $PINS A=write_enable Y=n_0 
.ENDS

.SUBCKT DATA_MEM_1 write_enable read_enable Sclk Frame input_ready 
+ Write_Address[7] Write_Address[6] Write_Address[5] Write_Address[4] 
+ Write_Address[3] Write_Address[2] Write_Address[1] Write_Address[0] 
+ Read_Address[7] Read_Address[6] Read_Address[5] Read_Address[4] 
+ Read_Address[3] Read_Address[2] Read_Address[1] Read_Address[0] data_in[15] 
+ data_in[14] data_in[13] data_in[12] data_in[11] data_in[10] data_in[9] 
+ data_in[8] data_in[7] data_in[6] data_in[5] data_in[4] data_in[3] data_in[2] 
+ data_in[1] data_in[0] data_stored[15] data_stored[14] data_stored[13] 
+ data_stored[12] data_stored[11] data_stored[10] data_stored[9] data_stored[8] 
+ data_stored[7] data_stored[6] data_stored[5] data_stored[4] data_stored[3] 
+ data_stored[2] data_stored[1] data_stored[0] allzeros 
Xmem_0_0 SRAM1RW256x8 $PINS CE=Sclk WEB=mem_0_0_WEB OEB=mem_0_0_OEB 
+ CSB=mem_0_0_CSB A[7]=RW0_addr[7] A[6]=RW0_addr[6] A[5]=RW0_addr[5] 
+ A[4]=RW0_addr[4] A[3]=RW0_addr[3] A[2]=RW0_addr[2] A[1]=RW0_addr[1] 
+ A[0]=RW0_addr[0] I[7]=data_in[7] I[6]=data_in[6] I[5]=data_in[5] 
+ I[4]=data_in[4] I[3]=data_in[3] I[2]=data_in[2] I[1]=data_in[1] I[0]=data_in[0] 
+ O[7]=mem_0_0_O[7] O[6]=mem_0_0_O[6] O[5]=mem_0_0_O[5] O[4]=mem_0_0_O[4] 
+ O[3]=mem_0_0_O[3] O[2]=mem_0_0_O[2] O[1]=mem_0_0_O[1] O[0]=mem_0_0_O[0] 
Xmem_0_1 SRAM1RW256x8 $PINS CE=Sclk WEB=mem_0_0_WEB OEB=mem_0_0_OEB 
+ CSB=mem_0_0_CSB A[7]=RW0_addr[7] A[6]=RW0_addr[6] A[5]=RW0_addr[5] 
+ A[4]=RW0_addr[4] A[3]=RW0_addr[3] A[2]=RW0_addr[2] A[1]=RW0_addr[1] 
+ A[0]=RW0_addr[0] I[7]=data_in[15] I[6]=data_in[14] I[5]=data_in[13] 
+ I[4]=data_in[12] I[3]=data_in[11] I[2]=data_in[10] I[1]=data_in[9] 
+ I[0]=data_in[8] O[7]=mem_0_1_O[7] O[6]=mem_0_1_O[6] O[5]=mem_0_1_O[5] 
+ O[4]=mem_0_1_O[4] O[3]=mem_0_1_O[3] O[2]=mem_0_1_O[2] O[1]=mem_0_1_O[1] 
+ O[0]=mem_0_1_O[0] 
Xcount_zero_reg[1] DFFHQNx1_ASAP7_75t_SL $PINS CLK=input_ready D=n_40 
+ QN=count_zero[1] 
Xcount_zero_reg[8] DFFHQNx1_ASAP7_75t_SL $PINS CLK=input_ready D=n_39 
+ QN=count_zero[8] 
Xcount_zero_reg[2] DFFHQNx1_ASAP7_75t_SL $PINS CLK=input_ready D=n_44 
+ QN=count_zero[2] 
Xcount_zero_reg[0] DFFHQNx1_ASAP7_75t_SL $PINS CLK=input_ready D=n_46 
+ QN=count_zero[0] 
Xcount_zero_reg[4] DFFHQNx1_ASAP7_75t_SL $PINS CLK=input_ready D=n_41 
+ QN=count_zero[4] 
Xcount_zero_reg[3] DFFHQNx1_ASAP7_75t_SL $PINS CLK=input_ready D=n_45 
+ QN=count_zero[3] 
Xcount_zero_reg[6] DFFHQNx1_ASAP7_75t_SL $PINS CLK=input_ready D=n_42 
+ QN=count_zero[6] 
Xcount_zero_reg[7] DFFHQNx1_ASAP7_75t_SL $PINS CLK=input_ready D=n_43 
+ QN=count_zero[7] 
Xg1584__5115 OR2x2_ASAP7_75t_SRAM $PINS A=n_36 B=count_zero[0] Y=n_46 
Xg1585__7482 NAND2xp33_ASAP7_75t_SL $PINS A=n_16 B=n_37 Y=n_45 
Xg1586__4733 NAND2xp33_ASAP7_75t_SL $PINS A=n_14 B=n_37 Y=n_44 
Xcount_zero_reg[5] DFFHQNx1_ASAP7_75t_SL $PINS CLK=input_ready D=n_38 
+ QN=count_zero[5] 
Xallzeros_reg DFFHQNx1_ASAP7_75t_SL $PINS CLK=input_ready D=n_35 QN=allzeros 
Xg1589__6161 NAND2xp33_ASAP7_75t_SL $PINS A=n_30 B=n_37 Y=n_43 
Xg1590__9315 NAND2xp33_ASAP7_75t_SL $PINS A=n_27 B=n_37 Y=n_42 
Xg1591__9945 NAND2xp33_ASAP7_75t_SL $PINS A=n_20 B=n_37 Y=n_41 
Xg1592__2883 NAND2xp33_ASAP7_75t_SL $PINS A=n_7 B=n_37 Y=n_40 
Xg1593__2346 AOI221xp5_ASAP7_75t_R $PINS A1=n_18 A2=n_31 B1=n_28 B2=n_21 C=n_34 
+ Y=n_39 
Xg1594__1666 AOI31xp33_ASAP7_75t_SL $PINS A1=n_18 A2=n_22 A3=n_24 B=n_34 Y=n_38 
Xcount_zero_reg[9] DFFHQNx1_ASAP7_75t_SL $PINS CLK=input_ready D=n_33 
+ QN=count_zero[9] 
Xg1596 INVx1_ASAP7_75t_SL $PINS A=n_37 Y=n_36 
Xg1597__7410 AOI21xp33_ASAP7_75t_SL $PINS A1=allzeros A2=n_18 B=n_34 Y=n_35 
Xg1598__6417 AOI21xp33_ASAP7_75t_SL $PINS A1=count_zero[8] A2=n_32 B=n_17 
+ Y=n_37 
Xg1599__5477 AND2x2_ASAP7_75t_R $PINS A=n_32 B=n_21 Y=n_34 
Xg1600__2398 AOI22xp33_ASAP7_75t_SL $PINS A1=n_29 A2=n_21 B1=count_zero[9] 
+ B2=n_18 Y=n_33 
Xg1601__5107 OA31x2_ASAP7_75t_SL $PINS A1=count_zero[6] A2=count_zero[7] 
+ A3=n_24 B1=count_zero[9] Y=n_32 
Xg1602__6260 NOR2xp33_ASAP7_75t_SL $PINS A=count_zero[8] B=n_28 Y=n_31 
Xg1603__4319 XNOR2xp5_ASAP7_75t_SRAM $PINS A=count_zero[7] B=n_25 Y=n_30 
Xg1604 INVx1_ASAP7_75t_SL $PINS A=n_28 Y=n_29 