$ Spice netlist generated by v2lvs
$ v2021.1_33.19    Mon Mar 1 16:09:52 PST 2021

.INCLUDE "/proj/cad/library/asap7/asap7sc7p5t_27/CDL/LVS/asap7sc7p5t_27_L.cdl"
.INCLUDE "/proj/cad/library/asap7/asap7sc7p5t_27/CDL/LVS/asap7sc7p5t_27_R.cdl"
.INCLUDE "/proj/cad/library/asap7/asap7sc7p5t_27/CDL/LVS/asap7sc7p5t_27_SL.cdl"
.INCLUDE "/proj/cad/library/asap7/asap7sc7p5t_27/CDL/LVS/asap7sc7p5t_27_SRAM.cdl"
.INCLUDE “/home/013/o/om/oma190007/cad/msdap_new/SRAM.cdl"

*.BUSDELIMITER [ 

.SUBCKT MSDAP Dclk Sclk Reset_n Frame Start InputL[15] InputL[14] InputL[13] 
+ InputL[12] InputL[11] InputL[10] InputL[9] InputL[8] InputL[7] InputL[6] 
+ InputL[5] InputL[4] InputL[3] InputL[2] InputL[1] InputL[0] InputR[15] 
+ InputR[14] InputR[13] InputR[12] InputR[11] InputR[10] InputR[9] InputR[8] 
+ InputR[7] InputR[6] InputR[5] InputR[4] InputR[3] InputR[2] InputR[1] 
+ InputR[0] InReady OutReady OutputL OutputR VSS VDD 
XFE_PHC738_loadL HB1xp67_ASAP7_75t_R $PINS Y=FE_PHN738_loadL A=loadL VSS=VSS 
+ VDD=VDD 
XFE_PHC670_rj_enable HB1xp67_ASAP7_75t_SL $PINS Y=FE_PHN670_rj_enable 
+ A=rj_enable VSS=VSS VDD=VDD 
XFE_PHC347_sum_L_38 HB4xp67_ASAP7_75t_SRAM $PINS Y=FE_PHN347_sum_L_38 
+ A=sum_L[38] VSS=VSS VDD=VDD 
XFE_PHC345_sum_L_30 HB4xp67_ASAP7_75t_SRAM $PINS Y=FE_PHN345_sum_L_30 
+ A=sum_L[30] VSS=VSS VDD=VDD 
XFE_PHC344_sum_L_31 HB4xp67_ASAP7_75t_SRAM $PINS Y=FE_PHN344_sum_L_31 
+ A=sum_L[31] VSS=VSS VDD=VDD 
XFE_PHC343_sum_L_26 HB4xp67_ASAP7_75t_SRAM $PINS Y=FE_PHN343_sum_L_26 
+ A=sum_L[26] VSS=VSS VDD=VDD 
XFE_PHC260_sum_R_26 HB4xp67_ASAP7_75t_SRAM $PINS Y=FE_PHN260_sum_R_26 
+ A=sum_R[26] VSS=VSS VDD=VDD 
XFE_PHC256_sum_R_30 HB4xp67_ASAP7_75t_SRAM $PINS Y=FE_PHN256_sum_R_30 
+ A=sum_R[30] VSS=VSS VDD=VDD 
XFE_PHC152_loadL HB3xp67_ASAP7_75t_SRAM $PINS Y=FE_PHN152_loadL 
+ A=FE_PHN738_loadL VSS=VSS VDD=VDD 
XFE_PHC146_shiftL_en HB4xp67_ASAP7_75t_SRAM $PINS Y=FE_PHN146_shiftL_en 
+ A=shiftL_en VSS=VSS VDD=VDD 
XFE_PHC145_loadR HB3xp67_ASAP7_75t_SRAM $PINS Y=FE_PHN145_loadR A=loadR VSS=VSS 
+ VDD=VDD 
XFE_PHC66_shiftR_en HB4xp67_ASAP7_75t_SRAM $PINS Y=FE_PHN66_shiftR_en 
+ A=shiftR_en VSS=VSS VDD=VDD 
XFE_PHC62_Frame HB4xp67_ASAP7_75t_SRAM $PINS Y=FE_PHN62_Frame A=Frame VSS=VSS 
+ VDD=VDD 
XCTS_cpc_drv_buf_00099 BUFx24_ASAP7_75t_SL $PINS Y=CTS_10 A=CTS_6 VSS=VSS 
+ VDD=VDD 
XCTS_cpc_drv_buf_00098 BUFx24_ASAP7_75t_SL $PINS Y=CTS_9 A=CTS_6 VSS=VSS 
+ VDD=VDD 
XCTS_cpc_drv_buf_00095 BUFx24_ASAP7_75t_SL $PINS Y=CTS_8 A=CTS_5 VSS=VSS 
+ VDD=VDD 
XCTS_cpc_drv_buf_00094 BUFx12f_ASAP7_75t_SRAM $PINS Y=CTS_7 A=CTS_5 VSS=VSS 
+ VDD=VDD 
XCTS_ccl_a_buf_00056 BUFx24_ASAP7_75t_SL $PINS Y=CTS_6 A=CTS_4 VSS=VSS VDD=VDD 
XCTS_ccl_a_buf_00054 BUFx24_ASAP7_75t_SL $PINS Y=CTS_5 A=CTS_4 VSS=VSS VDD=VDD 
XCTS_ccl_buf_00063 BUFx24_ASAP7_75t_SL $PINS Y=CTS_4 A=Sclk VSS=VSS VDD=VDD 
XCTS_ccl_a_buf_00052 BUFx24_ASAP7_75t_SL $PINS Y=CTS_3 A=CTS_1 VSS=VSS VDD=VDD 
XCTS_ccl_a_buf_00050 BUFx24_ASAP7_75t_SL $PINS Y=CTS_2 A=CTS_1 VSS=VSS VDD=VDD 
XCTS_ccl_buf_00062 BUFx24_ASAP7_75t_SL $PINS Y=CTS_1 A=Sclk VSS=VSS VDD=VDD 
XFE_OFC34_Clear BUFx3_ASAP7_75t_SL $PINS Y=FE_OFN34_Clear A=FE_PHN338_Clear 
+ VSS=VSS VDD=VDD 
XFE_OFC28_dataR_2 BUFx3_ASAP7_75t_L $PINS Y=FE_OFN28_dataR_2 A=dataR[2] VSS=VSS 
+ VDD=VDD 
XFE_OFC26_dataR_3 BUFx3_ASAP7_75t_L $PINS Y=FE_OFN26_dataR_3 A=dataR[3] VSS=VSS 
+ VDD=VDD 
XFE_OFC24_dataR_4 BUFx3_ASAP7_75t_L $PINS Y=FE_OFN24_dataR_4 A=dataR[4] VSS=VSS 
+ VDD=VDD 
XFE_OFC22_dataR_5 BUFx3_ASAP7_75t_L $PINS Y=FE_OFN22_dataR_5 A=dataR[5] VSS=VSS 
+ VDD=VDD 
XFE_OFC20_dataR_6 BUFx3_ASAP7_75t_L $PINS Y=FE_OFN20_dataR_6 A=dataR[6] VSS=VSS 
+ VDD=VDD 
XFE_OFC18_dataR_7 BUFx3_ASAP7_75t_L $PINS Y=FE_OFN18_dataR_7 A=dataR[7] VSS=VSS 
+ VDD=VDD 
XFE_OFC15_dataL_0 BUFx3_ASAP7_75t_SL $PINS Y=FE_OFN15_dataL_0 A=dataL[0] 
+ VSS=VSS VDD=VDD 
XFE_OFC13_dataL_1 BUFx3_ASAP7_75t_SL $PINS Y=FE_OFN13_dataL_1 A=dataL[1] 
+ VSS=VSS VDD=VDD 
XFE_OFC11_dataL_2 BUFx3_ASAP7_75t_L $PINS Y=FE_OFN11_dataL_2 A=dataL[2] VSS=VSS 
+ VDD=VDD 
XFE_OFC9_dataL_3 BUFx3_ASAP7_75t_L $PINS Y=FE_OFN9_dataL_3 A=dataL[3] VSS=VSS 
+ VDD=VDD 
XFE_OFC7_dataL_4 BUFx3_ASAP7_75t_L $PINS Y=FE_OFN7_dataL_4 A=dataL[4] VSS=VSS 
+ VDD=VDD 
XFE_OFC5_dataL_5 BUFx3_ASAP7_75t_L $PINS Y=FE_OFN5_dataL_5 A=dataL[5] VSS=VSS 
+ VDD=VDD 
XFE_OFC3_dataL_6 BUFx3_ASAP7_75t_L $PINS Y=FE_OFN3_dataL_6 A=dataL[6] VSS=VSS 
+ VDD=VDD 
XFE_OFC1_dataL_7 BUFx3_ASAP7_75t_L $PINS Y=FE_OFN1_dataL_7 A=dataL[7] VSS=VSS 
+ VDD=VDD 
XCo_mem_L/FE_PHC739_coeffwrite_2 HB1xp67_ASAP7_75t_SL $PINS 
+ Y=Co_mem_L/FE_PHN739_coeffwrite_2 A=coeffwrite[2] VSS=VSS VDD=VDD 
XCo_mem_L/FE_PHC737_coeffwrite_6 HB1xp67_ASAP7_75t_SL $PINS 
+ Y=Co_mem_L/FE_PHN737_coeffwrite_6 A=coeffwrite[6] VSS=VSS VDD=VDD 
XCo_mem_L/FE_PHC734_coeffwrite_4 HB1xp67_ASAP7_75t_SL $PINS 
+ Y=Co_mem_L/FE_PHN734_coeffwrite_4 A=coeffwrite[4] VSS=VSS VDD=VDD 
XCo_mem_L/FE_PHC731_coeffwrite_3 HB1xp67_ASAP7_75t_SL $PINS 
+ Y=Co_mem_L/FE_PHN731_coeffwrite_3 A=coeffwrite[3] VSS=VSS VDD=VDD 
XCo_mem_L/FE_PHC728_coeffwrite_1 HB2xp67_ASAP7_75t_R $PINS 
+ Y=Co_mem_L/FE_PHN728_coeffwrite_1 A=coeffwrite[1] VSS=VSS VDD=VDD 
XCo_mem_L/FE_PHC723_coeffwrite_5 HB1xp67_ASAP7_75t_SL $PINS 
+ Y=Co_mem_L/FE_PHN723_coeffwrite_5 A=coeffwrite[5] VSS=VSS VDD=VDD 
XCo_mem_L/CTS_ccl_a_buf_00033 BUFx24_ASAP7_75t_SL $PINS Y=Co_mem_L/CTS_2 
+ A=CTS_4 VSS=VSS VDD=VDD 
XCo_mem_L/CTS_ccl_a_buf_00042 BUFx24_ASAP7_75t_SL $PINS Y=Co_mem_L/CTS_1 
+ A=CTS_1 VSS=VSS VDD=VDD 
XCo_mem_L/CTS_ccl_a_buf_00039 BUFx24_ASAP7_75t_SL $PINS Y=Co_mem_L/CTS_5 
+ A=CTS_1 VSS=VSS VDD=VDD 
XCo_mem_L/CTS_ccl_a_buf_00036 BUFx24_ASAP7_75t_SL $PINS Y=Co_mem_L/CTS_4 
+ A=CTS_1 VSS=VSS VDD=VDD 
XCo_mem_L/FE_OFC45_mem_WEB BUFx2_ASAP7_75t_SL $PINS Y=Co_mem_L/FE_OFN45_mem_WEB 
+ A=Co_mem_L/mem_WEB VSS=VSS VDD=VDD 
XCo_mem_L/FE_OFC44_mem_OEB BUFx4_ASAP7_75t_SL $PINS Y=Co_mem_L/FE_OFN44_mem_OEB 
+ A=Co_mem_L/mem_OEB VSS=VSS VDD=VDD 
XCo_mem_L/FE_OFC43_RW0_addr_0 BUFx2_ASAP7_75t_SL $PINS 
+ Y=Co_mem_L/FE_OFN43_RW0_addr_0 A=Co_mem_L/RW0_addr[0] VSS=VSS VDD=VDD 
XCo_mem_L/FE_OFC42_RW0_addr_1 BUFx2_ASAP7_75t_SL $PINS 
+ Y=Co_mem_L/FE_OFN42_RW0_addr_1 A=Co_mem_L/RW0_addr[1] VSS=VSS VDD=VDD 
XCo_mem_L/FE_OFC41_RW0_addr_2 BUFx2_ASAP7_75t_SL $PINS 
+ Y=Co_mem_L/FE_OFN41_RW0_addr_2 A=Co_mem_L/RW0_addr[2] VSS=VSS VDD=VDD 
XCo_mem_L/FE_OFC40_RW0_addr_3 BUFx2_ASAP7_75t_SL $PINS 
+ Y=Co_mem_L/FE_OFN40_RW0_addr_3 A=Co_mem_L/RW0_addr[3] VSS=VSS VDD=VDD 
XCo_mem_L/FE_OFC39_RW0_addr_4 BUFx2_ASAP7_75t_SL $PINS 
+ Y=Co_mem_L/FE_OFN39_RW0_addr_4 A=Co_mem_L/RW0_addr[4] VSS=VSS VDD=VDD 
XCo_mem_L/FE_OFC38_RW0_addr_5 BUFx2_ASAP7_75t_SL $PINS 
+ Y=Co_mem_L/FE_OFN38_RW0_addr_5 A=Co_mem_L/RW0_addr[5] VSS=VSS VDD=VDD 
XCo_mem_L/FE_OFC37_RW0_addr_6 BUFx2_ASAP7_75t_SL $PINS 
+ Y=Co_mem_L/FE_OFN37_RW0_addr_6 A=Co_mem_L/RW0_addr[6] VSS=VSS VDD=VDD 
XCo_mem_L/FE_OFC16_dataL_0 BUFx2_ASAP7_75t_SL $PINS Y=Co_mem_L/FE_OFN16_dataL_0 
+ A=FE_OFN15_dataL_0 VSS=VSS VDD=VDD 
XCo_mem_L/FE_OFC14_dataL_1 BUFx2_ASAP7_75t_SL $PINS Y=Co_mem_L/FE_OFN14_dataL_1 
+ A=FE_OFN13_dataL_1 VSS=VSS VDD=VDD 
XCo_mem_L/FE_OFC12_dataL_2 BUFx3_ASAP7_75t_SL $PINS Y=Co_mem_L/FE_OFN12_dataL_2 
+ A=FE_OFN11_dataL_2 VSS=VSS VDD=VDD 
XCo_mem_L/FE_OFC10_dataL_3 BUFx2_ASAP7_75t_SL $PINS Y=Co_mem_L/FE_OFN10_dataL_3 
+ A=FE_OFN9_dataL_3 VSS=VSS VDD=VDD 
XCo_mem_L/FE_OFC8_dataL_4 BUFx3_ASAP7_75t_SL $PINS Y=Co_mem_L/FE_OFN8_dataL_4 
+ A=FE_OFN7_dataL_4 VSS=VSS VDD=VDD 
XCo_mem_L/FE_OFC6_dataL_5 BUFx2_ASAP7_75t_SL $PINS Y=Co_mem_L/FE_OFN6_dataL_5 
+ A=FE_OFN5_dataL_5 VSS=VSS VDD=VDD 
XCo_mem_L/FE_OFC4_dataL_6 BUFx2_ASAP7_75t_SL $PINS Y=Co_mem_L/FE_OFN4_dataL_6 
+ A=FE_OFN3_dataL_6 VSS=VSS VDD=VDD 
XCo_mem_L/FE_OFC2_dataL_7 BUFx2_ASAP7_75t_SL $PINS Y=Co_mem_L/FE_OFN2_dataL_7 
+ A=FE_OFN1_dataL_7 VSS=VSS VDD=VDD 
XCo_mem_L/FE_OFC0_dataL_8 BUFx4_ASAP7_75t_SL $PINS Y=Co_mem_L/FE_OFN0_dataL_8 
+ A=dataL[8] VSS=VSS VDD=VDD 
XCo_mem_L/mem_0_0 SRAM1RW128x12 $PINS CE=Co_mem_L/CTS_1 
+ WEB=Co_mem_L/FE_OFN45_mem_WEB OEB=Co_mem_L/FE_OFN44_mem_OEB 
+ CSB=Co_mem_L/mem_0_CSB A[6]=Co_mem_L/FE_OFN37_RW0_addr_6 
+ A[5]=Co_mem_L/FE_OFN38_RW0_addr_5 A[4]=Co_mem_L/FE_OFN39_RW0_addr_4 
+ A[3]=Co_mem_L/FE_OFN40_RW0_addr_3 A[2]=Co_mem_L/FE_OFN41_RW0_addr_2 
+ A[1]=Co_mem_L/FE_OFN42_RW0_addr_1 A[0]=Co_mem_L/FE_OFN43_RW0_addr_0 I[11]=VSS 
+ I[10]=VSS I[9]=VSS I[8]=Co_mem_L/FE_OFN0_dataL_8 I[7]=FE_OFN1_dataL_7 
+ I[6]=Co_mem_L/FE_OFN4_dataL_6 I[5]=FE_OFN5_dataL_5 
+ I[4]=Co_mem_L/FE_OFN8_dataL_4 I[3]=FE_OFN9_dataL_3 
+ I[2]=Co_mem_L/FE_OFN12_dataL_2 I[1]=Co_mem_L/FE_OFN14_dataL_1 
+ I[0]=Co_mem_L/FE_OFN16_dataL_0 O[11]=Co_mem_L/mem_0_O[11] 
+ O[10]=Co_mem_L/mem_0_O[10] O[9]=Co_mem_L/mem_0_O[9] O[8]=Co_mem_L/mem_0_O[8] 
+ O[7]=Co_mem_L/mem_0_O[7] O[6]=Co_mem_L/mem_0_O[6] O[5]=Co_mem_L/mem_0_O[5] 
+ O[4]=Co_mem_L/mem_0_O[4] O[3]=Co_mem_L/mem_0_O[3] O[2]=Co_mem_L/mem_0_O[2] 
+ O[1]=Co_mem_L/mem_0_O[1] O[0]=Co_mem_L/mem_0_O[0] VSS=VSS VDD=VDD 
XCo_mem_L/mem_0_1 SRAM1RW128x12 $PINS CE=Co_mem_L/CTS_5 
+ WEB=Co_mem_L/FE_OFN45_mem_WEB OEB=Co_mem_L/FE_OFN44_mem_OEB 
+ CSB=Co_mem_L/mem_1_CSB A[6]=Co_mem_L/FE_OFN37_RW0_addr_6 
+ A[5]=Co_mem_L/FE_OFN38_RW0_addr_5 A[4]=Co_mem_L/FE_OFN39_RW0_addr_4 
+ A[3]=Co_mem_L/FE_OFN40_RW0_addr_3 A[2]=Co_mem_L/FE_OFN41_RW0_addr_2 
+ A[1]=Co_mem_L/FE_OFN42_RW0_addr_1 A[0]=Co_mem_L/FE_OFN43_RW0_addr_0 I[11]=VSS 
+ I[10]=VSS I[9]=VSS I[8]=Co_mem_L/FE_OFN0_dataL_8 I[7]=Co_mem_L/FE_OFN2_dataL_7 
+ I[6]=FE_OFN3_dataL_6 I[5]=Co_mem_L/FE_OFN6_dataL_5 
+ I[4]=Co_mem_L/FE_OFN8_dataL_4 I[3]=Co_mem_L/FE_OFN10_dataL_3 
+ I[2]=Co_mem_L/FE_OFN12_dataL_2 I[1]=FE_OFN13_dataL_1 I[0]=FE_OFN15_dataL_0 
+ O[11]=Co_mem_L/mem_1_O[11] O[10]=Co_mem_L/mem_1_O[10] O[9]=Co_mem_L/mem_1_O[9] 
+ O[8]=Co_mem_L/mem_1_O[8] O[7]=Co_mem_L/mem_1_O[7] O[6]=Co_mem_L/mem_1_O[6] 
+ O[5]=Co_mem_L/mem_1_O[5] O[4]=Co_mem_L/mem_1_O[4] O[3]=Co_mem_L/mem_1_O[3] 
+ O[2]=Co_mem_L/mem_1_O[2] O[1]=Co_mem_L/mem_1_O[1] O[0]=Co_mem_L/mem_1_O[0] 
+ VSS=VSS VDD=VDD 
XCo_mem_L/mem_0_2 SRAM1RW128x12 $PINS CE=Co_mem_L/CTS_4 
+ WEB=Co_mem_L/FE_OFN45_mem_WEB OEB=Co_mem_L/FE_OFN44_mem_OEB 
+ CSB=Co_mem_L/mem_2_CSB A[6]=Co_mem_L/FE_OFN37_RW0_addr_6 
+ A[5]=Co_mem_L/FE_OFN38_RW0_addr_5 A[4]=Co_mem_L/FE_OFN39_RW0_addr_4 
+ A[3]=Co_mem_L/FE_OFN40_RW0_addr_3 A[2]=Co_mem_L/FE_OFN41_RW0_addr_2 
+ A[1]=Co_mem_L/FE_OFN42_RW0_addr_1 A[0]=Co_mem_L/FE_OFN43_RW0_addr_0 I[11]=VSS 
+ I[10]=VSS I[9]=VSS I[8]=Co_mem_L/FE_OFN0_dataL_8 I[7]=Co_mem_L/FE_OFN2_dataL_7 
+ I[6]=Co_mem_L/FE_OFN4_dataL_6 I[5]=Co_mem_L/FE_OFN6_dataL_5 
+ I[4]=Co_mem_L/FE_OFN8_dataL_4 I[3]=Co_mem_L/FE_OFN10_dataL_3 
+ I[2]=Co_mem_L/FE_OFN12_dataL_2 I[1]=Co_mem_L/FE_OFN14_dataL_1 
+ I[0]=Co_mem_L/FE_OFN16_dataL_0 O[11]=Co_mem_L/mem_2_O[11] 
+ O[10]=Co_mem_L/mem_2_O[10] O[9]=Co_mem_L/mem_2_O[9] O[8]=Co_mem_L/mem_2_O[8] 
+ O[7]=Co_mem_L/mem_2_O[7] O[6]=Co_mem_L/mem_2_O[6] O[5]=Co_mem_L/mem_2_O[5] 
+ O[4]=Co_mem_L/mem_2_O[4] O[3]=Co_mem_L/mem_2_O[3] O[2]=Co_mem_L/mem_2_O[2] 
+ O[1]=Co_mem_L/mem_2_O[1] O[0]=Co_mem_L/mem_2_O[0] VSS=VSS VDD=VDD 
XCo_mem_L/mem_0_3 SRAM1RW128x12 $PINS CE=Co_mem_L/CTS_2 WEB=Co_mem_L/mem_WEB 
+ OEB=Co_mem_L/FE_OFN44_mem_OEB CSB=Co_mem_L/mem_3_CSB A[6]=Co_mem_L/RW0_addr[6] 
+ A[5]=Co_mem_L/RW0_addr[5] A[4]=Co_mem_L/RW0_addr[4] A[3]=Co_mem_L/RW0_addr[3] 
+ A[2]=Co_mem_L/RW0_addr[2] A[1]=Co_mem_L/RW0_addr[1] A[0]=Co_mem_L/RW0_addr[0] 
+ I[11]=VSS I[10]=VSS I[9]=VSS I[8]=Co_mem_L/FE_OFN0_dataL_8 
+ I[7]=Co_mem_L/FE_OFN2_dataL_7 I[6]=Co_mem_L/FE_OFN4_dataL_6 
+ I[5]=Co_mem_L/FE_OFN6_dataL_5 I[4]=Co_mem_L/FE_OFN8_dataL_4 
+ I[3]=Co_mem_L/FE_OFN10_dataL_3 I[2]=Co_mem_L/FE_OFN12_dataL_2 
+ I[1]=Co_mem_L/FE_OFN14_dataL_1 I[0]=Co_mem_L/FE_OFN16_dataL_0 
+ O[11]=Co_mem_L/mem_3_O[11] O[10]=Co_mem_L/mem_3_O[10] O[9]=Co_mem_L/mem_3_O[9] 
+ O[8]=Co_mem_L/mem_3_O[8] O[7]=Co_mem_L/mem_3_O[7] O[6]=Co_mem_L/mem_3_O[6] 
+ O[5]=Co_mem_L/mem_3_O[5] O[4]=Co_mem_L/mem_3_O[4] O[3]=Co_mem_L/mem_3_O[3] 
+ O[2]=Co_mem_L/mem_3_O[2] O[1]=Co_mem_L/mem_3_O[1] O[0]=Co_mem_L/mem_3_O[0] 
+ VSS=VSS VDD=VDD 
XCo_mem_L/RW0_rdata_reg[5] DLLx1_ASAP7_75t_SL $PINS Q=coeffdataL[5] 
+ CLK=Co_mem_L/FE_OFN44_mem_OEB D=Co_mem_L/n_38 VSS=VSS VDD=VDD 
XCo_mem_L/RW0_rdata_reg[7] DLLx1_ASAP7_75t_SL $PINS Q=coeffdataL[7] 
+ CLK=Co_mem_L/FE_OFN44_mem_OEB D=Co_mem_L/n_32 VSS=VSS VDD=VDD 
XCo_mem_L/RW0_rdata_reg[8] DLLx1_ASAP7_75t_SL $PINS Q=coeffdataL[8] 
+ CLK=Co_mem_L/FE_OFN44_mem_OEB D=Co_mem_L/n_33 VSS=VSS VDD=VDD 
XCo_mem_L/RW0_rdata_reg[1] DLLx1_ASAP7_75t_SL $PINS Q=coeffdataL[1] 
+ CLK=Co_mem_L/FE_OFN44_mem_OEB D=Co_mem_L/n_31 VSS=VSS VDD=VDD 
XCo_mem_L/RW0_rdata_reg[6] DLLx1_ASAP7_75t_SL $PINS Q=coeffdataL[6] 
+ CLK=Co_mem_L/FE_OFN44_mem_OEB D=Co_mem_L/n_35 VSS=VSS VDD=VDD 
XCo_mem_L/RW0_rdata_reg[4] DLLx1_ASAP7_75t_SL $PINS Q=coeffdataL[4] 
+ CLK=Co_mem_L/FE_OFN44_mem_OEB D=Co_mem_L/n_37 VSS=VSS VDD=VDD 
XCo_mem_L/RW0_rdata_reg[0] DLLx1_ASAP7_75t_SL $PINS Q=coeffdataL[0] 
+ CLK=Co_mem_L/FE_OFN44_mem_OEB D=Co_mem_L/n_34 VSS=VSS VDD=VDD 
XCo_mem_L/RW0_rdata_reg[3] DLLx1_ASAP7_75t_SL $PINS Q=coeffdataL[3] 
+ CLK=Co_mem_L/FE_OFN44_mem_OEB D=Co_mem_L/n_36 VSS=VSS VDD=VDD 
XCo_mem_L/RW0_rdata_reg[2] DLLx1_ASAP7_75t_SL $PINS Q=coeffdataL[2] 
+ CLK=Co_mem_L/FE_OFN44_mem_OEB D=Co_mem_L/n_30 VSS=VSS VDD=VDD 
XCo_mem_L/g682__2398 NAND2xp33_ASAP7_75t_SL $PINS Y=Co_mem_L/n_38 
+ A=Co_mem_L/n_23 B=Co_mem_L/n_24 VSS=VSS VDD=VDD 
XCo_mem_L/g683__5107 NAND2xp33_ASAP7_75t_SL $PINS Y=Co_mem_L/n_37 
+ A=Co_mem_L/n_25 B=Co_mem_L/n_26 VSS=VSS VDD=VDD 
XCo_mem_L/g684__6260 NAND2xp33_ASAP7_75t_SL $PINS Y=Co_mem_L/n_36 
+ A=Co_mem_L/n_27 B=Co_mem_L/n_28 VSS=VSS VDD=VDD 
XCo_mem_L/g685__4319 NAND2xp33_ASAP7_75t_SL $PINS Y=Co_mem_L/n_35 
+ A=Co_mem_L/n_29 B=Co_mem_L/n_22 VSS=VSS VDD=VDD 
XCo_mem_L/g686__8428 NAND2xp33_ASAP7_75t_SL $PINS Y=Co_mem_L/n_34 
+ A=Co_mem_L/n_15 B=Co_mem_L/n_16 VSS=VSS VDD=VDD 
XCo_mem_L/g687__5526 NAND2xp33_ASAP7_75t_SL $PINS Y=Co_mem_L/n_33 
+ A=Co_mem_L/n_17 B=Co_mem_L/n_18 VSS=VSS VDD=VDD 
XCo_mem_L/g688__6783 NAND2xp33_ASAP7_75t_SL $PINS Y=Co_mem_L/n_32 
+ A=Co_mem_L/n_19 B=Co_mem_L/n_12 VSS=VSS VDD=VDD 
XCo_mem_L/g689__3680 NAND2xp33_ASAP7_75t_SL $PINS Y=Co_mem_L/n_31 
+ A=Co_mem_L/n_13 B=Co_mem_L/n_14 VSS=VSS VDD=VDD 
XCo_mem_L/g690__1617 NAND2xp33_ASAP7_75t_SL $PINS Y=Co_mem_L/n_30 
+ A=Co_mem_L/n_21 B=Co_mem_L/n_20 VSS=VSS VDD=VDD 
XCo_mem_L/g691__2802 AOI22xp33_ASAP7_75t_SL $PINS Y=Co_mem_L/n_29 
+ A1=Co_mem_L/mem_0_O[6] A2=Co_mem_L/n_8 B1=Co_mem_L/n_10 B2=Co_mem_L/mem_1_O[6] 
+ VSS=VSS VDD=VDD 
XCo_mem_L/g692__1705 AOI22xp33_ASAP7_75t_SL $PINS Y=Co_mem_L/n_28 
+ A1=Co_mem_L/mem_2_O[3] A2=Co_mem_L/n_11 B1=Co_mem_L/n_9 B2=Co_mem_L/mem_3_O[3] 
+ VSS=VSS VDD=VDD 
XCo_mem_L/g693__5122 AOI22xp33_ASAP7_75t_SL $PINS Y=Co_mem_L/n_27 
+ A1=Co_mem_L/mem_0_O[3] A2=Co_mem_L/n_8 B1=Co_mem_L/n_10 B2=Co_mem_L/mem_1_O[3] 
+ VSS=VSS VDD=VDD 
XCo_mem_L/g694__8246 AOI22xp33_ASAP7_75t_SL $PINS Y=Co_mem_L/n_26 
+ A1=Co_mem_L/mem_2_O[4] A2=Co_mem_L/n_11 B1=Co_mem_L/n_9 B2=Co_mem_L/mem_3_O[4] 
+ VSS=VSS VDD=VDD 
XCo_mem_L/g695__7098 AOI22xp33_ASAP7_75t_SL $PINS Y=Co_mem_L/n_25 
+ A1=Co_mem_L/mem_0_O[4] A2=Co_mem_L/n_8 B1=Co_mem_L/n_10 B2=Co_mem_L/mem_1_O[4] 
+ VSS=VSS VDD=VDD 
XCo_mem_L/g696__6131 AOI22xp33_ASAP7_75t_SL $PINS Y=Co_mem_L/n_24 
+ A1=Co_mem_L/mem_2_O[5] A2=Co_mem_L/n_11 B1=Co_mem_L/n_9 B2=Co_mem_L/mem_3_O[5] 
+ VSS=VSS VDD=VDD 
XCo_mem_L/g697__1881 AOI22xp33_ASAP7_75t_SL $PINS Y=Co_mem_L/n_23 
+ A1=Co_mem_L/mem_0_O[5] A2=Co_mem_L/n_8 B1=Co_mem_L/n_10 B2=Co_mem_L/mem_1_O[5] 
+ VSS=VSS VDD=VDD 
XCo_mem_L/g698__5115 AOI22xp33_ASAP7_75t_SL $PINS Y=Co_mem_L/n_22 
+ A1=Co_mem_L/mem_2_O[6] A2=Co_mem_L/n_11 B1=Co_mem_L/n_9 B2=Co_mem_L/mem_3_O[6] 
+ VSS=VSS VDD=VDD 
XCo_mem_L/g699__7482 AOI22xp33_ASAP7_75t_SL $PINS Y=Co_mem_L/n_21 
+ A1=Co_mem_L/mem_0_O[2] A2=Co_mem_L/n_8 B1=Co_mem_L/n_10 B2=Co_mem_L/mem_1_O[2] 
+ VSS=VSS VDD=VDD 
XCo_mem_L/g700__4733 AOI22xp33_ASAP7_75t_SL $PINS Y=Co_mem_L/n_20 
+ A1=Co_mem_L/mem_2_O[2] A2=Co_mem_L/n_11 B1=Co_mem_L/n_9 B2=Co_mem_L/mem_3_O[2] 
+ VSS=VSS VDD=VDD 
XCo_mem_L/g701__6161 AOI22xp33_ASAP7_75t_SL $PINS Y=Co_mem_L/n_19 
+ A1=Co_mem_L/mem_0_O[7] A2=Co_mem_L/n_8 B1=Co_mem_L/n_10 B2=Co_mem_L/mem_1_O[7] 
+ VSS=VSS VDD=VDD 
XCo_mem_L/g702__9315 AOI22xp33_ASAP7_75t_SL $PINS Y=Co_mem_L/n_18 
+ A1=Co_mem_L/mem_2_O[8] A2=Co_mem_L/n_11 B1=Co_mem_L/n_9 B2=Co_mem_L/mem_3_O[8] 
+ VSS=VSS VDD=VDD 
XCo_mem_L/g703__9945 AOI22xp33_ASAP7_75t_SL $PINS Y=Co_mem_L/n_17 
+ A1=Co_mem_L/mem_0_O[8] A2=Co_mem_L/n_8 B1=Co_mem_L/n_10 B2=Co_mem_L/mem_1_O[8] 
+ VSS=VSS VDD=VDD 
XCo_mem_L/g704__2883 AOI22xp33_ASAP7_75t_SL $PINS Y=Co_mem_L/n_16 
+ A1=Co_mem_L/mem_2_O[0] A2=Co_mem_L/n_11 B1=Co_mem_L/n_9 B2=Co_mem_L/mem_3_O[0] 
+ VSS=VSS VDD=VDD 
XCo_mem_L/g705__2346 AOI22xp33_ASAP7_75t_SL $PINS Y=Co_mem_L/n_15 
+ A1=Co_mem_L/mem_0_O[0] A2=Co_mem_L/n_8 B1=Co_mem_L/n_10 B2=Co_mem_L/mem_1_O[0] 
+ VSS=VSS VDD=VDD 
XCo_mem_L/g706__1666 AOI22xp33_ASAP7_75t_SL $PINS Y=Co_mem_L/n_14 
+ A1=Co_mem_L/mem_2_O[1] A2=Co_mem_L/n_11 B1=Co_mem_L/n_9 B2=Co_mem_L/mem_3_O[1] 
+ VSS=VSS VDD=VDD 
XCo_mem_L/g707__7410 AOI22xp33_ASAP7_75t_SL $PINS Y=Co_mem_L/n_13 
+ A1=Co_mem_L/mem_0_O[1] A2=Co_mem_L/n_8 B1=Co_mem_L/n_10 B2=Co_mem_L/mem_1_O[1] 
+ VSS=VSS VDD=VDD 
XCo_mem_L/g708__6417 AOI22xp33_ASAP7_75t_SL $PINS Y=Co_mem_L/n_12 
+ A1=Co_mem_L/mem_2_O[7] A2=Co_mem_L/n_11 B1=Co_mem_L/n_9 B2=Co_mem_L/mem_3_O[7] 
+ VSS=VSS VDD=VDD 
XCo_mem_L/g709__5477 NOR2xp33_ASAP7_75t_SL $PINS Y=Co_mem_L/n_11 
+ A=Co_mem_L/cs_vec[0] B=Co_mem_L/n_6 VSS=VSS VDD=VDD 
XCo_mem_L/g710__2398 NOR2xp33_ASAP7_75t_SL $PINS Y=Co_mem_L/n_10 
+ A=Co_mem_L/cs_vec[1] B=Co_mem_L/n_7 VSS=VSS VDD=VDD 
XCo_mem_L/g711__5107 NOR2xp33_ASAP7_75t_SL $PINS Y=Co_mem_L/n_9 A=Co_mem_L/n_7 
+ B=Co_mem_L/n_6 VSS=VSS VDD=VDD 
XCo_mem_L/g712__6260 NOR2xp33_ASAP7_75t_SL $PINS Y=Co_mem_L/n_8 
+ A=Co_mem_L/cs_vec[0] B=Co_mem_L/cs_vec[1] VSS=VSS VDD=VDD 
XCo_mem_L/g713 INVx1_ASAP7_75t_SL $PINS Y=Co_mem_L/n_7 A=Co_mem_L/cs_vec[0] 
+ VSS=VSS VDD=VDD 
XCo_mem_L/g714 INVx1_ASAP7_75t_SL $PINS Y=Co_mem_L/n_6 A=Co_mem_L/cs_vec[1] 
+ VSS=VSS VDD=VDD 
XCo_mem_L/g715__4319 OR2x2_ASAP7_75t_SRAM $PINS Y=Co_mem_L/mem_3_CSB 
+ A=Co_mem_L/n_3 B=Co_mem_L/n_5 VSS=VSS VDD=VDD 
XCo_mem_L/cs_vec_reg[0] DFFHQNx1_ASAP7_75t_L $PINS QN=Co_mem_L/cs_vec[0] 
+ CLK=CTS_3 D=Co_mem_L/n_3 VSS=VSS VDD=VDD 
XCo_mem_L/cs_vec_reg[1] DFFHQNx1_ASAP7_75t_L $PINS QN=Co_mem_L/cs_vec[1] 
+ CLK=CTS_3 D=Co_mem_L/n_5 VSS=VSS VDD=VDD 
XCo_mem_L/g718__8428 NAND2xp5_ASAP7_75t_SL $PINS Y=Co_mem_L/mem_0_CSB 
+ A=Co_mem_L/n_5 B=Co_mem_L/n_3 VSS=VSS VDD=VDD 
XCo_mem_L/g719__5526 NAND2xp5_ASAP7_75t_L $PINS Y=Co_mem_L/mem_1_CSB 
+ A=Co_mem_L/n_2 B=Co_mem_L/n_5 VSS=VSS VDD=VDD 
XCo_mem_L/g720__6783 NAND2xp5_ASAP7_75t_L $PINS Y=Co_mem_L/mem_2_CSB 
+ A=Co_mem_L/n_4 B=Co_mem_L/n_3 VSS=VSS VDD=VDD 
XCo_mem_L/g721 INVxp67_ASAP7_75t_SL $PINS Y=Co_mem_L/n_4 A=Co_mem_L/n_5 VSS=VSS 
+ VDD=VDD 
XCo_mem_L/g722__3680 AO22x1_ASAP7_75t_SL $PINS Y=Co_mem_L/RW0_addr[0] 
+ A1=coeffL_addr[0] A2=Co_mem_L/n_0 B1=coeffwrite[0] B2=FE_PHN253_coeff_enable 
+ VSS=VSS VDD=VDD 
XCo_mem_L/g723__1617 AO22x1_ASAP7_75t_SL $PINS Y=Co_mem_L/RW0_addr[4] 
+ A1=coeffL_addr[4] A2=Co_mem_L/n_0 B1=Co_mem_L/FE_PHN734_coeffwrite_4 
+ B2=FE_PHN253_coeff_enable VSS=VSS VDD=VDD 
XCo_mem_L/g724__2802 AO22x1_ASAP7_75t_SL $PINS Y=Co_mem_L/RW0_addr[5] 
+ A1=coeffL_addr[5] A2=Co_mem_L/n_0 B1=Co_mem_L/FE_PHN723_coeffwrite_5 
+ B2=FE_PHN253_coeff_enable VSS=VSS VDD=VDD 
XCo_mem_L/g725__1705 AOI22xp5_ASAP7_75t_SL $PINS Y=Co_mem_L/n_5 
+ A1=coeffL_addr[8] A2=Co_mem_L/n_0 B1=coeffwrite[8] B2=FE_PHN253_coeff_enable 
+ VSS=VSS VDD=VDD 
XCo_mem_L/g726__5122 OA21x2_ASAP7_75t_L $PINS Y=Co_mem_L/mem_OEB A1=Frame 
+ A2=Co_mem_L/n_0 B=Co_mem_L/n_1 VSS=VSS VDD=VDD 
XCo_mem_L/g727 INVxp67_ASAP7_75t_SL $PINS Y=Co_mem_L/n_2 A=Co_mem_L/n_3 VSS=VSS 
+ VDD=VDD 
XCo_mem_L/g728__8246 AO22x1_ASAP7_75t_SL $PINS Y=Co_mem_L/RW0_addr[3] 
+ A1=coeffL_addr[3] A2=Co_mem_L/n_0 B1=Co_mem_L/FE_PHN731_coeffwrite_3 
+ B2=FE_PHN253_coeff_enable VSS=VSS VDD=VDD 
XCo_mem_L/g729__7098 AO22x1_ASAP7_75t_SL $PINS Y=Co_mem_L/RW0_addr[6] 
+ A1=coeffL_addr[6] A2=Co_mem_L/n_0 B1=Co_mem_L/FE_PHN737_coeffwrite_6 
+ B2=FE_PHN253_coeff_enable VSS=VSS VDD=VDD 
XCo_mem_L/g730__6131 AO22x1_ASAP7_75t_SL $PINS Y=Co_mem_L/RW0_addr[1] 
+ A1=coeffL_addr[1] A2=Co_mem_L/n_0 B1=Co_mem_L/FE_PHN728_coeffwrite_1 
+ B2=FE_PHN253_coeff_enable VSS=VSS VDD=VDD 
XCo_mem_L/g731__1881 AO22x1_ASAP7_75t_SL $PINS Y=Co_mem_L/RW0_addr[2] 
+ A1=coeffL_addr[2] A2=Co_mem_L/n_0 B1=Co_mem_L/FE_PHN739_coeffwrite_2 
+ B2=FE_PHN253_coeff_enable VSS=VSS VDD=VDD 
XCo_mem_L/g732__5115 AOI22xp5_ASAP7_75t_SL $PINS Y=Co_mem_L/n_3 
+ A1=coeffL_addr[7] A2=Co_mem_L/n_0 B1=coeffwrite[7] B2=FE_PHN253_coeff_enable 
+ VSS=VSS VDD=VDD 
XCo_mem_L/g733__7482 NAND2xp33_ASAP7_75t_SL $PINS Y=Co_mem_L/n_1 A=rjL_enable 
+ B=Co_mem_L/n_0 VSS=VSS VDD=VDD 
XCo_mem_L/g734__4733 NAND2x1_ASAP7_75t_SL $PINS Y=Co_mem_L/mem_WEB 
+ A=coeff_enable B=Frame VSS=VSS VDD=VDD 
XCo_mem_L/g735 INVx1_ASAP7_75t_SL $PINS Y=Co_mem_L/n_0 A=FE_PHN253_coeff_enable 
+ VSS=VSS VDD=VDD 
XCo_mem_R/FE_PHC856_coeffwrite_7 HB1xp67_ASAP7_75t_SL $PINS 
+ Y=Co_mem_R/FE_PHN856_coeffwrite_7 A=coeffwrite[7] VSS=VSS VDD=VDD 
XCo_mem_R/CTS_ccl_a_buf_00030 BUFx12f_ASAP7_75t_SRAM $PINS Y=Co_mem_R/CTS_2 
+ A=CTS_4 VSS=VSS VDD=VDD 
XCo_mem_R/CTS_ccl_a_buf_00027 BUFx6f_ASAP7_75t_SRAM $PINS Y=Co_mem_R/CTS_1 
+ A=CTS_4 VSS=VSS VDD=VDD 
XCo_mem_R/CTS_ccl_a_buf_00024 BUFx16f_ASAP7_75t_SRAM $PINS Y=Co_mem_R/CTS_5 
+ A=CTS_4 VSS=VSS VDD=VDD 
XCo_mem_R/CTS_ccl_a_buf_00021 BUFx24_ASAP7_75t_SL $PINS Y=Co_mem_R/CTS_4 
+ A=CTS_4 VSS=VSS VDD=VDD 
XCo_mem_R/FE_OFC54_mem_WEB BUFx2_ASAP7_75t_SL $PINS Y=Co_mem_R/FE_OFN54_mem_WEB 
+ A=Co_mem_R/mem_WEB VSS=VSS VDD=VDD 
XCo_mem_R/FE_OFC53_mem_OEB BUFx3_ASAP7_75t_L $PINS Y=Co_mem_R/FE_OFN53_mem_OEB 
+ A=Co_mem_R/mem_OEB VSS=VSS VDD=VDD 
XCo_mem_R/FE_OFC52_RW0_addr_0 BUFx2_ASAP7_75t_SL $PINS 
+ Y=Co_mem_R/FE_OFN52_RW0_addr_0 A=Co_mem_R/RW0_addr[0] VSS=VSS VDD=VDD 
XCo_mem_R/FE_OFC51_RW0_addr_1 BUFx2_ASAP7_75t_SL $PINS 
+ Y=Co_mem_R/FE_OFN51_RW0_addr_1 A=Co_mem_R/RW0_addr[1] VSS=VSS VDD=VDD 
XCo_mem_R/FE_OFC50_RW0_addr_2 BUFx2_ASAP7_75t_SL $PINS 
+ Y=Co_mem_R/FE_OFN50_RW0_addr_2 A=Co_mem_R/RW0_addr[2] VSS=VSS VDD=VDD 
XCo_mem_R/FE_OFC49_RW0_addr_3 BUFx2_ASAP7_75t_SL $PINS 
+ Y=Co_mem_R/FE_OFN49_RW0_addr_3 A=Co_mem_R/RW0_addr[3] VSS=VSS VDD=VDD 
XCo_mem_R/FE_OFC48_RW0_addr_4 BUFx2_ASAP7_75t_SL $PINS 
+ Y=Co_mem_R/FE_OFN48_RW0_addr_4 A=Co_mem_R/RW0_addr[4] VSS=VSS VDD=VDD 
XCo_mem_R/FE_OFC47_RW0_addr_5 BUFx2_ASAP7_75t_SL $PINS 
+ Y=Co_mem_R/FE_OFN47_RW0_addr_5 A=Co_mem_R/RW0_addr[5] VSS=VSS VDD=VDD 
XCo_mem_R/FE_OFC46_RW0_addr_6 BUFx2_ASAP7_75t_SL $PINS 
+ Y=Co_mem_R/FE_OFN46_RW0_addr_6 A=Co_mem_R/RW0_addr[6] VSS=VSS VDD=VDD 
XCo_mem_R/FE_OFC33_dataR_0 BUFx4_ASAP7_75t_SL $PINS Y=Co_mem_R/FE_OFN33_dataR_0 
+ A=dataR[0] VSS=VSS VDD=VDD 
XCo_mem_R/FE_OFC31_dataR_1 BUFx4_ASAP7_75t_SL $PINS Y=Co_mem_R/FE_OFN31_dataR_1 
+ A=dataR[1] VSS=VSS VDD=VDD 
XCo_mem_R/FE_OFC29_dataR_2 BUFx2_ASAP7_75t_SL $PINS Y=Co_mem_R/FE_OFN29_dataR_2 
+ A=FE_OFN28_dataR_2 VSS=VSS VDD=VDD 
XCo_mem_R/FE_OFC27_dataR_3 BUFx2_ASAP7_75t_SL $PINS Y=Co_mem_R/FE_OFN27_dataR_3 
+ A=FE_OFN26_dataR_3 VSS=VSS VDD=VDD 
XCo_mem_R/FE_OFC25_dataR_4 BUFx2_ASAP7_75t_SL $PINS Y=Co_mem_R/FE_OFN25_dataR_4 
+ A=FE_OFN24_dataR_4 VSS=VSS VDD=VDD 
XCo_mem_R/FE_OFC23_dataR_5 BUFx4_ASAP7_75t_SL $PINS Y=Co_mem_R/FE_OFN23_dataR_5 
+ A=FE_OFN22_dataR_5 VSS=VSS VDD=VDD 
XCo_mem_R/FE_OFC21_dataR_6 BUFx3_ASAP7_75t_SL $PINS Y=Co_mem_R/FE_OFN21_dataR_6 
+ A=FE_OFN20_dataR_6 VSS=VSS VDD=VDD 
XCo_mem_R/FE_OFC19_dataR_7 BUFx4_ASAP7_75t_SL $PINS Y=Co_mem_R/FE_OFN19_dataR_7 
+ A=FE_OFN18_dataR_7 VSS=VSS VDD=VDD 
XCo_mem_R/FE_OFC17_dataR_8 BUFx4_ASAP7_75t_SL $PINS Y=Co_mem_R/FE_OFN17_dataR_8 
+ A=dataR[8] VSS=VSS VDD=VDD 
XCo_mem_R/mem_0_0 SRAM1RW128x12 $PINS CE=Co_mem_R/CTS_2 
+ WEB=Co_mem_R/FE_OFN54_mem_WEB OEB=Co_mem_R/FE_OFN53_mem_OEB 
+ CSB=Co_mem_R/mem_0_CSB A[6]=Co_mem_R/FE_OFN46_RW0_addr_6 
+ A[5]=Co_mem_R/FE_OFN47_RW0_addr_5 A[4]=Co_mem_R/FE_OFN48_RW0_addr_4 
+ A[3]=Co_mem_R/FE_OFN49_RW0_addr_3 A[2]=Co_mem_R/FE_OFN50_RW0_addr_2 
+ A[1]=Co_mem_R/FE_OFN51_RW0_addr_1 A[0]=Co_mem_R/FE_OFN52_RW0_addr_0 I[11]=VSS 
+ I[10]=VSS I[9]=VSS I[8]=Co_mem_R/FE_OFN17_dataR_8 
+ I[7]=Co_mem_R/FE_OFN19_dataR_7 I[6]=Co_mem_R/FE_OFN21_dataR_6 
+ I[5]=Co_mem_R/FE_OFN23_dataR_5 I[4]=FE_OFN24_dataR_4 I[3]=FE_OFN26_dataR_3 
+ I[2]=FE_OFN28_dataR_2 I[1]=Co_mem_R/FE_OFN31_dataR_1 
+ I[0]=Co_mem_R/FE_OFN33_dataR_0 O[11]=Co_mem_R/mem_0_O[11] 
+ O[10]=Co_mem_R/mem_0_O[10] O[9]=Co_mem_R/mem_0_O[9] O[8]=Co_mem_R/mem_0_O[8] 
+ O[7]=Co_mem_R/mem_0_O[7] O[6]=Co_mem_R/mem_0_O[6] O[5]=Co_mem_R/mem_0_O[5] 
+ O[4]=Co_mem_R/mem_0_O[4] O[3]=Co_mem_R/mem_0_O[3] O[2]=Co_mem_R/mem_0_O[2] 
+ O[1]=Co_mem_R/mem_0_O[1] O[0]=Co_mem_R/mem_0_O[0] VSS=VSS VDD=VDD 
XCo_mem_R/mem_0_1 SRAM1RW128x12 $PINS CE=Co_mem_R/CTS_1 
+ WEB=Co_mem_R/FE_OFN54_mem_WEB OEB=Co_mem_R/FE_OFN53_mem_OEB 
+ CSB=Co_mem_R/mem_1_CSB A[6]=Co_mem_R/FE_OFN46_RW0_addr_6 
+ A[5]=Co_mem_R/FE_OFN47_RW0_addr_5 A[4]=Co_mem_R/FE_OFN48_RW0_addr_4 
+ A[3]=Co_mem_R/FE_OFN49_RW0_addr_3 A[2]=Co_mem_R/FE_OFN50_RW0_addr_2 
+ A[1]=Co_mem_R/FE_OFN51_RW0_addr_1 A[0]=Co_mem_R/FE_OFN52_RW0_addr_0 I[11]=VSS 
+ I[10]=VSS I[9]=VSS I[8]=Co_mem_R/FE_OFN17_dataR_8 
+ I[7]=Co_mem_R/FE_OFN19_dataR_7 I[6]=Co_mem_R/FE_OFN21_dataR_6 
+ I[5]=Co_mem_R/FE_OFN23_dataR_5 I[4]=Co_mem_R/FE_OFN25_dataR_4 
+ I[3]=Co_mem_R/FE_OFN27_dataR_3 I[2]=Co_mem_R/FE_OFN29_dataR_2 
+ I[1]=Co_mem_R/FE_OFN31_dataR_1 I[0]=Co_mem_R/FE_OFN33_dataR_0 
+ O[11]=Co_mem_R/mem_1_O[11] O[10]=Co_mem_R/mem_1_O[10] O[9]=Co_mem_R/mem_1_O[9] 
+ O[8]=Co_mem_R/mem_1_O[8] O[7]=Co_mem_R/mem_1_O[7] O[6]=Co_mem_R/mem_1_O[6] 
+ O[5]=Co_mem_R/mem_1_O[5] O[4]=Co_mem_R/mem_1_O[4] O[3]=Co_mem_R/mem_1_O[3] 
+ O[2]=Co_mem_R/mem_1_O[2] O[1]=Co_mem_R/mem_1_O[1] O[0]=Co_mem_R/mem_1_O[0] 
+ VSS=VSS VDD=VDD 
XCo_mem_R/mem_0_2 SRAM1RW128x12 $PINS CE=Co_mem_R/CTS_5 
+ WEB=Co_mem_R/FE_OFN54_mem_WEB OEB=Co_mem_R/FE_OFN53_mem_OEB 
+ CSB=Co_mem_R/mem_2_CSB A[6]=Co_mem_R/FE_OFN46_RW0_addr_6 
+ A[5]=Co_mem_R/FE_OFN47_RW0_addr_5 A[4]=Co_mem_R/FE_OFN48_RW0_addr_4 
+ A[3]=Co_mem_R/FE_OFN49_RW0_addr_3 A[2]=Co_mem_R/FE_OFN50_RW0_addr_2 
+ A[1]=Co_mem_R/FE_OFN51_RW0_addr_1 A[0]=Co_mem_R/FE_OFN52_RW0_addr_0 I[11]=VSS 
+ I[10]=VSS I[9]=VSS I[8]=Co_mem_R/FE_OFN17_dataR_8 
+ I[7]=Co_mem_R/FE_OFN19_dataR_7 I[6]=Co_mem_R/FE_OFN21_dataR_6 
+ I[5]=Co_mem_R/FE_OFN23_dataR_5 I[4]=Co_mem_R/FE_OFN25_dataR_4 
+ I[3]=Co_mem_R/FE_OFN27_dataR_3 I[2]=Co_mem_R/FE_OFN29_dataR_2 
+ I[1]=Co_mem_R/FE_OFN31_dataR_1 I[0]=Co_mem_R/FE_OFN33_dataR_0 
+ O[11]=Co_mem_R/mem_2_O[11] O[10]=Co_mem_R/mem_2_O[10] O[9]=Co_mem_R/mem_2_O[9] 
+ O[8]=Co_mem_R/mem_2_O[8] O[7]=Co_mem_R/mem_2_O[7] O[6]=Co_mem_R/mem_2_O[6] 
+ O[5]=Co_mem_R/mem_2_O[5] O[4]=Co_mem_R/mem_2_O[4] O[3]=Co_mem_R/mem_2_O[3] 
+ O[2]=Co_mem_R/mem_2_O[2] O[1]=Co_mem_R/mem_2_O[1] O[0]=Co_mem_R/mem_2_O[0] 
+ VSS=VSS VDD=VDD 
XCo_mem_R/mem_0_3 SRAM1RW128x12 $PINS CE=Co_mem_R/CTS_4 WEB=Co_mem_R/mem_WEB 
+ OEB=Co_mem_R/mem_OEB CSB=Co_mem_R/mem_3_CSB A[6]=Co_mem_R/RW0_addr[6] 
+ A[5]=Co_mem_R/RW0_addr[5] A[4]=Co_mem_R/RW0_addr[4] A[3]=Co_mem_R/RW0_addr[3] 
+ A[2]=Co_mem_R/RW0_addr[2] A[1]=Co_mem_R/RW0_addr[1] A[0]=Co_mem_R/RW0_addr[0] 
+ I[11]=VSS I[10]=VSS I[9]=VSS I[8]=Co_mem_R/FE_OFN17_dataR_8 
+ I[7]=Co_mem_R/FE_OFN19_dataR_7 I[6]=Co_mem_R/FE_OFN21_dataR_6 
+ I[5]=Co_mem_R/FE_OFN23_dataR_5 I[4]=Co_mem_R/FE_OFN25_dataR_4 
+ I[3]=Co_mem_R/FE_OFN27_dataR_3 I[2]=Co_mem_R/FE_OFN29_dataR_2 
+ I[1]=Co_mem_R/FE_OFN31_dataR_1 I[0]=Co_mem_R/FE_OFN33_dataR_0 
+ O[11]=Co_mem_R/mem_3_O[11] O[10]=Co_mem_R/mem_3_O[10] O[9]=Co_mem_R/mem_3_O[9] 
+ O[8]=Co_mem_R/mem_3_O[8] O[7]=Co_mem_R/mem_3_O[7] O[6]=Co_mem_R/mem_3_O[6] 
+ O[5]=Co_mem_R/mem_3_O[5] O[4]=Co_mem_R/mem_3_O[4] O[3]=Co_mem_R/mem_3_O[3] 
+ O[2]=Co_mem_R/mem_3_O[2] O[1]=Co_mem_R/mem_3_O[1] O[0]=Co_mem_R/mem_3_O[0] 
+ VSS=VSS VDD=VDD 
XCo_mem_R/RW0_rdata_reg[5] DLLx1_ASAP7_75t_SL $PINS Q=coeffdataR[5] 
+ CLK=Co_mem_R/FE_OFN53_mem_OEB D=Co_mem_R/n_38 VSS=VSS VDD=VDD 
XCo_mem_R/RW0_rdata_reg[7] DLLx1_ASAP7_75t_SL $PINS Q=coeffdataR[7] 
+ CLK=Co_mem_R/FE_OFN53_mem_OEB D=Co_mem_R/n_32 VSS=VSS VDD=VDD 
XCo_mem_R/RW0_rdata_reg[8] DLLx1_ASAP7_75t_SL $PINS Q=coeffdataR[8] 
+ CLK=Co_mem_R/FE_OFN53_mem_OEB D=Co_mem_R/n_33 VSS=VSS VDD=VDD 
XCo_mem_R/RW0_rdata_reg[1] DLLx1_ASAP7_75t_SL $PINS Q=coeffdataR[1] 
+ CLK=Co_mem_R/FE_OFN53_mem_OEB D=Co_mem_R/n_31 VSS=VSS VDD=VDD 
XCo_mem_R/RW0_rdata_reg[6] DLLx1_ASAP7_75t_SL $PINS Q=coeffdataR[6] 
+ CLK=Co_mem_R/FE_OFN53_mem_OEB D=Co_mem_R/n_35 VSS=VSS VDD=VDD 
XCo_mem_R/RW0_rdata_reg[4] DLLx1_ASAP7_75t_SL $PINS Q=coeffdataR[4] 
+ CLK=Co_mem_R/FE_OFN53_mem_OEB D=Co_mem_R/n_37 VSS=VSS VDD=VDD 
XCo_mem_R/RW0_rdata_reg[0] DLLx1_ASAP7_75t_SL $PINS Q=coeffdataR[0] 
+ CLK=Co_mem_R/FE_OFN53_mem_OEB D=Co_mem_R/n_34 VSS=VSS VDD=VDD 
XCo_mem_R/RW0_rdata_reg[3] DLLx1_ASAP7_75t_SL $PINS Q=coeffdataR[3] 
+ CLK=Co_mem_R/FE_OFN53_mem_OEB D=Co_mem_R/n_36 VSS=VSS VDD=VDD 
XCo_mem_R/RW0_rdata_reg[2] DLLx1_ASAP7_75t_SL $PINS Q=coeffdataR[2] 
+ CLK=Co_mem_R/FE_OFN53_mem_OEB D=Co_mem_R/n_30 VSS=VSS VDD=VDD 
XCo_mem_R/g682__6161 NAND2xp33_ASAP7_75t_SL $PINS Y=Co_mem_R/n_38 
+ A=Co_mem_R/n_23 B=Co_mem_R/n_24 VSS=VSS VDD=VDD 
XCo_mem_R/g683__9315 NAND2xp33_ASAP7_75t_SL $PINS Y=Co_mem_R/n_37 
+ A=Co_mem_R/n_25 B=Co_mem_R/n_26 VSS=VSS VDD=VDD 
XCo_mem_R/g684__9945 NAND2xp33_ASAP7_75t_SL $PINS Y=Co_mem_R/n_36 
+ A=Co_mem_R/n_27 B=Co_mem_R/n_28 VSS=VSS VDD=VDD 
XCo_mem_R/g685__2883 NAND2xp33_ASAP7_75t_SL $PINS Y=Co_mem_R/n_35 
+ A=Co_mem_R/n_29 B=Co_mem_R/n_22 VSS=VSS VDD=VDD 
XCo_mem_R/g686__2346 NAND2xp33_ASAP7_75t_SL $PINS Y=Co_mem_R/n_34 
+ A=Co_mem_R/n_15 B=Co_mem_R/n_16 VSS=VSS VDD=VDD 
XCo_mem_R/g687__1666 NAND2xp33_ASAP7_75t_SL $PINS Y=Co_mem_R/n_33 
+ A=Co_mem_R/n_17 B=Co_mem_R/n_18 VSS=VSS VDD=VDD 
XCo_mem_R/g688__7410 NAND2xp33_ASAP7_75t_SL $PINS Y=Co_mem_R/n_32 
+ A=Co_mem_R/n_19 B=Co_mem_R/n_12 VSS=VSS VDD=VDD 
XCo_mem_R/g689__6417 NAND2xp33_ASAP7_75t_SL $PINS Y=Co_mem_R/n_31 
+ A=Co_mem_R/n_13 B=Co_mem_R/n_14 VSS=VSS VDD=VDD 
XCo_mem_R/g690__5477 NAND2xp33_ASAP7_75t_SL $PINS Y=Co_mem_R/n_30 
+ A=Co_mem_R/n_21 B=Co_mem_R/n_20 VSS=VSS VDD=VDD 
XCo_mem_R/g691__2398 AOI22xp33_ASAP7_75t_SL $PINS Y=Co_mem_R/n_29 